@<TRIPOS>MOLECULE
3nbfC02-3.pdb
 103 98 0 0 0
SMALL
GASTEIGER

@<TRIPOS>ATOM
      1  N         -6.7210   -3.5290   -1.2000 N.3    80  PRO80      -0.2102
      2  CA        -6.6950   -2.1190   -1.6040 C.3    80  PRO80       0.1504
      3  C         -6.0910   -1.2080   -0.5430 C.2    80  PRO80       0.2576
      4  O         -5.5560   -0.1620   -0.9050 O.2    80  PRO80      -0.2718
      5  CB        -8.1790   -1.7860   -1.8100 C.3    80  PRO80       0.0282
      6  CG        -8.8960   -2.7650   -0.9620 C.3    80  PRO80       0.0208
      7  CD        -8.1020   -4.0270   -1.0740 C.3    80  PRO80       0.0893
      8  N         -6.1560   -1.6020    0.7330 N.am   81  THR81      -0.1939
      9  CA        -5.7040   -0.7350    1.8090 C.3    81  THR81       0.2028
     10  C         -4.7160   -1.4300    2.7380 C.2    81  THR81       0.2642
     11  O         -4.6470   -2.6640    2.7820 O.2    81  THR81      -0.2714
     12  CB        -6.8950   -0.2520    2.6500 C.3    81  THR81       0.1808
     13  OG1       -7.4890   -1.3720    3.3110 O.3    81  THR81      -0.2208
     14  CG2       -7.9270    0.4190    1.7760 C.3    81  THR81       0.0379
     15  N         -3.9630   -0.6330    3.4980 N.am   82  ARG82      -0.1963
     16  CA        -2.9880   -1.1830    4.4330 C.3    82  ARG82       0.1729
     17  C         -3.6590   -1.9040    5.5900 C.2    82  ARG82       0.2616
     18  O         -3.1990   -2.9580    6.0470 O.2    82  ARG82      -0.2715
     19  CB        -2.1080   -0.0620    4.9780 C.3    82  ARG82       0.0348
     20  CG        -1.3760    0.7140    3.8870 C.3    82  ARG82       0.0492
     21  CD        -0.9080    2.0630    4.3880 C.3    82  ARG82       0.2205
     22  NE        -0.2580    2.8030    3.2970 N.pl3  82  ARG82      -0.0865
     23  CZ         0.0300    4.0980    3.3340 C.cat  82  ARG82       0.5346
     24  NH1       -0.2810    4.8140    4.4060 N.pl3  82  ARG82       0.1354
     25  NH2        0.6250    4.6670    2.2910 N.pl3  82  ARG82       0.1354
     26  N         -4.7620   -1.3500    6.0640 N.am   83  GLU83      -0.1977
     27  CA        -5.4580   -1.9660    7.1980 C.3    83  GLU83       0.1602
     28  C         -6.0690   -3.3170    6.8210 C.2    83  GLU83       0.2287
     29  O         -6.1110   -4.2290    7.6340 O.2    83  GLU83      -0.2864
     30  CB        -6.5040   -1.0300    7.7980 C.3    83  GLU83       0.0415
     31  CG        -7.6080   -0.6080    6.8400 C.3    83  GLU83       0.1163
     32  CD        -7.3020    0.6720    6.0660 C.2    83  GLU83       0.3649
     33  OE1       -6.1260    0.9150    5.6870 O.co2  83  GLU83      -0.2457
     34  OE2       -8.2670    1.4240    5.8110 O.co2  83  GLU83      -0.2457
     35  N          2.3630   -0.0630    2.3670 N.3   106  GLY106     -0.1210
     36  CA         3.0200    1.2410    2.4360 C.3   106  GLY106      0.1956
     37  C          2.8230    2.0310    3.7180 C.2   106  GLY106      0.2612
     38  O          2.2750    1.5380    4.7070 O.2   106  GLY106     -0.2717
     39  N          3.2840    3.2810    3.7020 N.am  107  GLY107     -0.1956
     40  CA         3.1020    4.1850    4.8190 C.3   107  GLY107      0.1869
     41  C          4.0860    3.9710    5.9450 C.2   107  GLY107      0.2309
     42  O          4.0530    4.6580    6.9570 O.2   107  GLY107     -0.2863
     43  N         10.6940    0.6530    4.6450 N.3   110  TYR110     -0.1241
     44  CA        10.8380   -0.4320    3.6640 C.3   110  TYR110      0.1605
     45  C         11.6190   -1.6310    4.1800 C.2   110  TYR110      0.2264
     46  O         11.6690   -2.6700    3.5280 O.2   110  TYR110     -0.2867
     47  CB        11.5290    0.0650    2.3990 C.3   110  TYR110      0.0534
     48  CG        10.6270    0.8200    1.4520 C.ar  110  TYR110     -0.0201
     49  CD1       10.3770    2.1690    1.6340 C.ar  110  TYR110     -0.0009
     50  CD2       10.0360    0.1770    0.3670 C.ar  110  TYR110     -0.0009
     51  CE1        9.5660    2.8760    0.7550 C.ar  110  TYR110      0.0417
     52  CE2        9.2020    0.8660   -0.5070 C.ar  110  TYR110      0.0417
     53  CZ         8.9700    2.2160   -0.3000 C.ar  110  TYR110      0.1957
     54  OH         8.1580    2.9030   -1.1660 O.3   110  TYR110     -0.2866
     55  N         -0.5660   -4.6750   -0.3050 N.3   127  THR127     -0.1218
     56  CA        -1.1780   -3.5990   -1.0850 C.3   127  THR127      0.1862
     57  C         -0.3630   -3.4850   -2.3790 C.2   127  THR127      0.2287
     58  O          0.7870   -3.9030   -2.4260 O.2   127  THR127     -0.2866
     59  CB        -1.1630   -2.2640   -0.3310 C.3   127  THR127      0.1770
     60  OG1        0.1620   -2.0240    0.1630 O.3   127  THR127     -0.2211
     61  CG2       -2.1230   -2.3130    0.8360 C.3   127  THR127      0.0375
     62  N          0.7910   -0.9600   -4.3360 N.3   129  GLY129     -0.1210
     63  CA         1.8740    0.0170   -4.4430 C.3   129  GLY129      0.1956
     64  C          3.1690   -0.5330   -3.8930 C.2   129  GLY129      0.2611
     65  O          4.1850   -0.6340   -4.5990 O.2   129  GLY129     -0.2717
     66  N          3.1450   -0.8880   -2.6150 N.am  130  ARG130     -0.1979
     67  CA         4.3260   -1.4550   -1.9780 C.3   130  ARG130      0.1597
     68  C          4.7520   -2.7660   -2.6400 C.2   130  ARG130      0.2287
     69  O          5.9490   -2.9950   -2.8510 O.2   130  ARG130     -0.2864
     70  CB         4.0890   -1.6230   -0.4780 C.3   130  ARG130      0.0334
     71  CG         5.2140   -2.2560    0.2620 C.3   130  ARG130      0.0492
     72  CD         6.5030   -1.3950    0.2140 C.3   130  ARG130      0.2205
     73  NE         6.3960   -0.0790    0.8510 N.pl3 130  ARG130     -0.0865
     74  CZ         6.7230    0.1620    2.1200 C.cat 130  ARG130      0.5346
     75  NH1        7.1200   -0.8270    2.9050 N.pl3 130  ARG130      0.1354
     76  NH2        6.6440    1.3870    2.6140 N.pl3 130  ARG130      0.1354
     77  N          6.7130   -2.0140   -5.7230 N.3   133  ASP133     -0.1239
     78  CA         8.0480   -1.5260   -5.3280 C.3   133  ASP133      0.1674
     79  C          8.9730   -2.7330   -5.1290 C.2   133  ASP133      0.2266
     80  O         10.0390   -2.8260   -5.7360 O.2   133  ASP133     -0.2867
     81  CB         8.0000   -0.7110   -4.0270 C.3   133  ASP133      0.1410
     82  CG         7.3030    0.6270   -4.1860 C.2   133  ASP133      0.3668
     83  OD1        7.2160    1.1570   -5.3220 O.co2 133  ASP133     -0.2456
     84  OD2        6.8570    1.1750   -3.1560 O.co2 133  ASP133     -0.2456
     85  N         -9.1070    3.0380   -5.8150 N.3   159  MET159     -0.1245
     86  CA        -7.9000    3.5240   -5.1470 C.3   159  MET159      0.1570
     87  C         -6.8380    3.8320   -6.1950 C.2   159  MET159      0.2261
     88  O         -5.7470    4.3030   -5.8700 O.2   159  MET159     -0.2867
     89  CB        -7.3520    2.4810   -4.1740 C.3   159  MET159      0.0387
     90  CG        -8.2790    2.1310   -3.0050 C.3   159  MET159      0.0595
     91  SD        -7.9250    3.0980   -1.5350 S.3   159  MET159     -0.1393
     92  CE        -6.4090    3.8920   -2.0460 C.3   159  MET159      0.0692
     93  N         -5.3620    1.5940   -8.3990 N.3   161  PHE161     -0.1241
     94  CA        -4.2970    0.5980   -8.4790 C.3   161  PHE161      0.1605
     95  C         -4.3830   -0.3720   -9.6670 C.2   161  PHE161      0.2264
     96  O         -3.7530   -1.4260   -9.6510 O.2   161  PHE161     -0.2867
     97  CB        -4.2810   -0.2420   -7.2000 C.3   161  PHE161      0.0534
     98  CG        -3.6400    0.4310   -6.0220 C.ar  161  PHE161     -0.0203
     99  CD1       -2.3760    1.0050   -6.1270 C.ar  161  PHE161     -0.0042
    100  CD2       -4.2760    0.4380   -4.7890 C.ar  161  PHE161     -0.0042
    101  CE1       -1.7730    1.5960   -5.0290 C.ar  161  PHE161     -0.0003
    102  CE2       -3.6880    1.0230   -3.6870 C.ar  161  PHE161     -0.0003
    103  CZ        -2.4230    1.6060   -3.8060 C.ar  161  PHE161     -0.0000
@<TRIPOS>BOND
     1    95    96    2
     2    95    94    1
     3    94    93    1
     4    94    97    1
     5    97    98    1
     6    87    88    2
     7    87    86    1
     8    99    98   ar
     9    99   101   ar
    10    98   100   ar
    11    85    86    1
    12    80    79    2
    13    77    78    1
    14    78    79    1
    15    78    81    1
    16    83    82   ar
    17    86    89    1
    18   101   103   ar
    19   100   102   ar
    20    65    64    2
    21    63    62    1
    22    63    64    1
    23    82    81    1
    24    82    84   ar
    25    89    90    1
    26    64    66   am
    27   103   102   ar
    28    90    91    1
    29    69    68    2
    30    68    67    1
    31    66    67    1
    32    58    57    2
    33    57    56    1
    34    92    91    1
    35    67    70    1
    36     5     2    1
    37     5     6    1
    38     2     1    1
    39     2     3    1
    40     1     7    1
    41    54    53    1
    42    56    59    1
    43    56    55    1
    44     7     6    1
    45     4     3    2
    46     3     8   am
    47    52    53   ar
    48    52    50   ar
    49    70    71    1
    50    59    60    1
    51    59    61    1
    52    53    51   ar
    53    72    71    1
    54    72    73    1
    55    50    48   ar
    56     8     9    1
    57    51    49   ar
    58    73    74    1
    59    48    49   ar
    60    48    47    1
    61    14    12    1
    62     9    12    1
    63     9    10    1
    64    74    76    2
    65    74    75    1
    66    25    23    2
    67    35    36    1
    68    47    44    1
    69    36    37    1
    70    12    13    1
    71    10    11    2
    72    10    15   am
    73    22    23    1
    74    22    21    1
    75    23    24    1
    76    15    16    1
    77    46    45    2
    78    44    45    1
    79    44    43    1
    80    39    37   am
    81    39    40    1
    82    37    38    2
    83    20    21    1
    84    20    19    1
    85    16    19    1
    86    16    17    1
    87    40    41    1
    88    17    18    2
    89    17    26   am
    90    33    32   ar
    91    34    32   ar
    92    41    42    2
    93    26    27    1
    94    32    31    1
    95    28    27    1
    96    28    29    2
    97    31    30    1
    98    27    30    1
