@<TRIPOS>MOLECULE
3nbfC02-1.pdb
 103 98 0 0 0
SMALL
GASTEIGER

@<TRIPOS>ATOM
      1  N         -6.7210    1.2000   -3.5290 N.3    80  PRO80      -0.2102
      2  CA        -6.6950    1.6040   -2.1190 C.3    80  PRO80       0.1504
      3  C         -6.0910    0.5430   -1.2080 C.2    80  PRO80       0.2576
      4  O         -5.5560    0.9050   -0.1620 O.2    80  PRO80      -0.2718
      5  CB        -8.1790    1.8100   -1.7860 C.3    80  PRO80       0.0282
      6  CG        -8.8960    0.9620   -2.7650 C.3    80  PRO80       0.0208
      7  CD        -8.1020    1.0740   -4.0270 C.3    80  PRO80       0.0893
      8  N         -6.1560   -0.7330   -1.6020 N.am   81  THR81      -0.1939
      9  CA        -5.7040   -1.8090   -0.7350 C.3    81  THR81       0.2028
     10  C         -4.7160   -2.7380   -1.4300 C.2    81  THR81       0.2642
     11  O         -4.6470   -2.7820   -2.6640 O.2    81  THR81      -0.2714
     12  CB        -6.8950   -2.6500   -0.2520 C.3    81  THR81       0.1808
     13  OG1       -7.4890   -3.3110   -1.3720 O.3    81  THR81      -0.2208
     14  CG2       -7.9270   -1.7760    0.4190 C.3    81  THR81       0.0379
     15  N         -3.9630   -3.4980   -0.6330 N.am   82  ARG82      -0.1963
     16  CA        -2.9880   -4.4330   -1.1830 C.3    82  ARG82       0.1729
     17  C         -3.6590   -5.5900   -1.9040 C.2    82  ARG82       0.2616
     18  O         -3.1990   -6.0470   -2.9580 O.2    82  ARG82      -0.2715
     19  CB        -2.1080   -4.9780   -0.0620 C.3    82  ARG82       0.0348
     20  CG        -1.3760   -3.8870    0.7140 C.3    82  ARG82       0.0492
     21  CD        -0.9080   -4.3880    2.0630 C.3    82  ARG82       0.2205
     22  NE        -0.2580   -3.2970    2.8030 N.pl3  82  ARG82      -0.0865
     23  CZ         0.0300   -3.3340    4.0980 C.cat  82  ARG82       0.5346
     24  NH1       -0.2810   -4.4060    4.8140 N.pl3  82  ARG82       0.1354
     25  NH2        0.6250   -2.2910    4.6670 N.pl3  82  ARG82       0.1354
     26  N         -4.7620   -6.0640   -1.3500 N.am   83  GLU83      -0.1977
     27  CA        -5.4580   -7.1980   -1.9660 C.3    83  GLU83       0.1602
     28  C         -6.0690   -6.8210   -3.3170 C.2    83  GLU83       0.2287
     29  O         -6.1110   -7.6340   -4.2290 O.2    83  GLU83      -0.2864
     30  CB        -6.5040   -7.7980   -1.0300 C.3    83  GLU83       0.0415
     31  CG        -7.6080   -6.8400   -0.6080 C.3    83  GLU83       0.1163
     32  CD        -7.3020   -6.0660    0.6720 C.2    83  GLU83       0.3649
     33  OE1       -6.1260   -5.6870    0.9150 O.co2  83  GLU83      -0.2457
     34  OE2       -8.2670   -5.8110    1.4240 O.co2  83  GLU83      -0.2457
     35  N          2.3630   -2.3670   -0.0630 N.3   106  GLY106     -0.1210
     36  CA         3.0200   -2.4360    1.2410 C.3   106  GLY106      0.1956
     37  C          2.8230   -3.7180    2.0310 C.2   106  GLY106      0.2612
     38  O          2.2750   -4.7070    1.5380 O.2   106  GLY106     -0.2717
     39  N          3.2840   -3.7020    3.2810 N.am  107  GLY107     -0.1956
     40  CA         3.1020   -4.8190    4.1850 C.3   107  GLY107      0.1869
     41  C          4.0860   -5.9450    3.9710 C.2   107  GLY107      0.2309
     42  O          4.0530   -6.9570    4.6580 O.2   107  GLY107     -0.2863
     43  N         10.6940   -4.6450    0.6530 N.3   110  TYR110     -0.1241
     44  CA        10.8380   -3.6640   -0.4320 C.3   110  TYR110      0.1605
     45  C         11.6190   -4.1800   -1.6310 C.2   110  TYR110      0.2264
     46  O         11.6690   -3.5280   -2.6700 O.2   110  TYR110     -0.2867
     47  CB        11.5290   -2.3990    0.0650 C.3   110  TYR110      0.0534
     48  CG        10.6270   -1.4520    0.8200 C.ar  110  TYR110     -0.0201
     49  CD1       10.3770   -1.6340    2.1690 C.ar  110  TYR110     -0.0009
     50  CD2       10.0360   -0.3670    0.1770 C.ar  110  TYR110     -0.0009
     51  CE1        9.5660   -0.7550    2.8760 C.ar  110  TYR110      0.0417
     52  CE2        9.2020    0.5070    0.8660 C.ar  110  TYR110      0.0417
     53  CZ         8.9700    0.3000    2.2160 C.ar  110  TYR110      0.1957
     54  OH         8.1580    1.1660    2.9030 O.3   110  TYR110     -0.2866
     55  N         -0.5660    0.3050   -4.6750 N.3   127  THR127     -0.1218
     56  CA        -1.1780    1.0850   -3.5990 C.3   127  THR127      0.1862
     57  C         -0.3630    2.3790   -3.4850 C.2   127  THR127      0.2287
     58  O          0.7870    2.4260   -3.9030 O.2   127  THR127     -0.2866
     59  CB        -1.1630    0.3310   -2.2640 C.3   127  THR127      0.1770
     60  OG1        0.1620   -0.1630   -2.0240 O.3   127  THR127     -0.2211
     61  CG2       -2.1230   -0.8360   -2.3130 C.3   127  THR127      0.0375
     62  N          0.7910    4.3360   -0.9600 N.3   129  GLY129     -0.1210
     63  CA         1.8740    4.4430    0.0170 C.3   129  GLY129      0.1956
     64  C          3.1690    3.8930   -0.5330 C.2   129  GLY129      0.2611
     65  O          4.1850    4.5990   -0.6340 O.2   129  GLY129     -0.2717
     66  N          3.1450    2.6150   -0.8880 N.am  130  ARG130     -0.1979
     67  CA         4.3260    1.9780   -1.4550 C.3   130  ARG130      0.1597
     68  C          4.7520    2.6400   -2.7660 C.2   130  ARG130      0.2287
     69  O          5.9490    2.8510   -2.9950 O.2   130  ARG130     -0.2864
     70  CB         4.0890    0.4780   -1.6230 C.3   130  ARG130      0.0334
     71  CG         5.2140   -0.2620   -2.2560 C.3   130  ARG130      0.0492
     72  CD         6.5030   -0.2140   -1.3950 C.3   130  ARG130      0.2205
     73  NE         6.3960   -0.8510   -0.0790 N.pl3 130  ARG130     -0.0865
     74  CZ         6.7230   -2.1200    0.1620 C.cat 130  ARG130      0.5346
     75  NH1        7.1200   -2.9050   -0.8270 N.pl3 130  ARG130      0.1354
     76  NH2        6.6440   -2.6140    1.3870 N.pl3 130  ARG130      0.1354
     77  N          6.7130    5.7230   -2.0140 N.3   133  ASP133     -0.1239
     78  CA         8.0480    5.3280   -1.5260 C.3   133  ASP133      0.1674
     79  C          8.9730    5.1290   -2.7330 C.2   133  ASP133      0.2266
     80  O         10.0390    5.7360   -2.8260 O.2   133  ASP133     -0.2867
     81  CB         8.0000    4.0270   -0.7110 C.3   133  ASP133      0.1410
     82  CG         7.3030    4.1860    0.6270 C.2   133  ASP133      0.3668
     83  OD1        7.2160    5.3220    1.1570 O.co2 133  ASP133     -0.2456
     84  OD2        6.8570    3.1560    1.1750 O.co2 133  ASP133     -0.2456
     85  N         -9.1070    5.8150    3.0380 N.3   159  MET159     -0.1245
     86  CA        -7.9000    5.1470    3.5240 C.3   159  MET159      0.1570
     87  C         -6.8380    6.1950    3.8320 C.2   159  MET159      0.2261
     88  O         -5.7470    5.8700    4.3030 O.2   159  MET159     -0.2867
     89  CB        -7.3520    4.1740    2.4810 C.3   159  MET159      0.0387
     90  CG        -8.2790    3.0050    2.1310 C.3   159  MET159      0.0595
     91  SD        -7.9250    1.5350    3.0980 S.3   159  MET159     -0.1393
     92  CE        -6.4090    2.0460    3.8920 C.3   159  MET159      0.0692
     93  N         -5.3620    8.3990    1.5940 N.3   161  PHE161     -0.1241
     94  CA        -4.2970    8.4790    0.5980 C.3   161  PHE161      0.1605
     95  C         -4.3830    9.6670   -0.3720 C.2   161  PHE161      0.2264
     96  O         -3.7530    9.6510   -1.4260 O.2   161  PHE161     -0.2867
     97  CB        -4.2810    7.2000   -0.2420 C.3   161  PHE161      0.0534
     98  CG        -3.6400    6.0220    0.4310 C.ar  161  PHE161     -0.0203
     99  CD1       -2.3760    6.1270    1.0050 C.ar  161  PHE161     -0.0042
    100  CD2       -4.2760    4.7890    0.4380 C.ar  161  PHE161     -0.0042
    101  CE1       -1.7730    5.0290    1.5960 C.ar  161  PHE161     -0.0003
    102  CE2       -3.6880    3.6870    1.0230 C.ar  161  PHE161     -0.0003
    103  CZ        -2.4230    3.8060    1.6060 C.ar  161  PHE161     -0.0000
@<TRIPOS>BOND
     1    55    56    1
     2    29    28    2
     3     7     1    1
     4     7     6    1
     5    58    57    2
     6    56    57    1
     7    56    59    1
     8     1     2    1
     9    28    27    1
    10    69    68    2
    11    18    17    2
    12    80    79    2
    13    68    67    1
    14     6     5    1
    15    79    78    1
    16    46    45    2
    17    11    10    2
    18    61    59    1
    19    59    60    1
    20    71    70    1
    21    71    72    1
    22     2     5    1
    23     2     3    1
    24    77    78    1
    25    27    26    1
    26    27    30    1
    27    17    26   am
    28    17    16    1
    29    45    44    1
    30    70    67    1
    31     8     3   am
    32     8     9    1
    33    78    81    1
    34    67    66    1
    35    10     9    1
    36    10    15   am
    37    96    95    2
    38    72    73    1
    39    13    12    1
    40     3     4    2
    41    16    15    1
    42    16    19    1
    43    30    31    1
    44    62    63    1
    45    66    64   am
    46    75    74    2
    47     9    12    1
    48    81    82    1
    49    65    64    2
    50    31    32    1
    51    64    63    1
    52    44    47    1
    53    44    43    1
    54    95    94    1
    55    12    14    1
    56    97    98    1
    57    97    94    1
    58    73    74    1
    59    35    36    1
    60    19    20    1
    61    47    48    1
    62    74    76    1
    63    50    48   ar
    64    50    52   ar
    65    98   100   ar
    66    98    99   ar
    67   100   102   ar
    68    94    93    1
    69    82    83   ar
    70    82    84   ar
    71    32    33   ar
    72    32    34   ar
    73    20    21    1
    74    48    49   ar
    75    52    53   ar
    76    99   101   ar
    77   102   103   ar
    78    36    37    1
    79    38    37    2
    80   101   103   ar
    81    37    39   am
    82    21    22    1
    83    90    89    1
    84    90    91    1
    85    49    51   ar
    86    53    51   ar
    87    53    54    1
    88    89    86    1
    89    22    23    1
    90    85    86    1
    91    91    92    1
    92    39    40    1
    93    86    87    1
    94    87    88    2
    95    41    40    1
    96    41    42    2
    97    23    25    2
    98    23    24    1
