@<TRIPOS>MOLECULE
3nbfC02-2.pdb
 103 98 0 0 0
SMALL
GASTEIGER

@<TRIPOS>ATOM
      1  N          1.2000   -6.7210    3.5290 N.3    80  PRO80      -0.2102
      2  CA         1.6040   -6.6950    2.1190 C.3    80  PRO80       0.1504
      3  C          0.5430   -6.0910    1.2080 C.2    80  PRO80       0.2576
      4  O          0.9050   -5.5560    0.1620 O.2    80  PRO80      -0.2718
      5  CB         1.8100   -8.1790    1.7860 C.3    80  PRO80       0.0282
      6  CG         0.9620   -8.8960    2.7650 C.3    80  PRO80       0.0208
      7  CD         1.0740   -8.1020    4.0270 C.3    80  PRO80       0.0893
      8  N         -0.7330   -6.1560    1.6020 N.am   81  THR81      -0.1939
      9  CA        -1.8090   -5.7040    0.7350 C.3    81  THR81       0.2028
     10  C         -2.7380   -4.7160    1.4300 C.2    81  THR81       0.2642
     11  O         -2.7820   -4.6470    2.6640 O.2    81  THR81      -0.2714
     12  CB        -2.6500   -6.8950    0.2520 C.3    81  THR81       0.1808
     13  OG1       -3.3110   -7.4890    1.3720 O.3    81  THR81      -0.2208
     14  CG2       -1.7760   -7.9270   -0.4190 C.3    81  THR81       0.0379
     15  N         -3.4980   -3.9630    0.6330 N.am   82  ARG82      -0.1963
     16  CA        -4.4330   -2.9880    1.1830 C.3    82  ARG82       0.1729
     17  C         -5.5900   -3.6590    1.9040 C.2    82  ARG82       0.2616
     18  O         -6.0470   -3.1990    2.9580 O.2    82  ARG82      -0.2715
     19  CB        -4.9780   -2.1080    0.0620 C.3    82  ARG82       0.0348
     20  CG        -3.8870   -1.3760   -0.7140 C.3    82  ARG82       0.0492
     21  CD        -4.3880   -0.9080   -2.0630 C.3    82  ARG82       0.2205
     22  NE        -3.2970   -0.2580   -2.8030 N.pl3  82  ARG82      -0.0865
     23  CZ        -3.3340    0.0300   -4.0980 C.cat  82  ARG82       0.5346
     24  NH1       -4.4060   -0.2810   -4.8140 N.pl3  82  ARG82       0.1354
     25  NH2       -2.2910    0.6250   -4.6670 N.pl3  82  ARG82       0.1354
     26  N         -6.0640   -4.7620    1.3500 N.am   83  GLU83      -0.1977
     27  CA        -7.1980   -5.4580    1.9660 C.3    83  GLU83       0.1602
     28  C         -6.8210   -6.0690    3.3170 C.2    83  GLU83       0.2287
     29  O         -7.6340   -6.1110    4.2290 O.2    83  GLU83      -0.2864
     30  CB        -7.7980   -6.5040    1.0300 C.3    83  GLU83       0.0415
     31  CG        -6.8400   -7.6080    0.6080 C.3    83  GLU83       0.1163
     32  CD        -6.0660   -7.3020   -0.6720 C.2    83  GLU83       0.3649
     33  OE1       -5.6870   -6.1260   -0.9150 O.co2  83  GLU83      -0.2457
     34  OE2       -5.8110   -8.2670   -1.4240 O.co2  83  GLU83      -0.2457
     35  N         -2.3670    2.3630    0.0630 N.3   106  GLY106     -0.1210
     36  CA        -2.4360    3.0200   -1.2410 C.3   106  GLY106      0.1956
     37  C         -3.7180    2.8230   -2.0310 C.2   106  GLY106      0.2612
     38  O         -4.7070    2.2750   -1.5380 O.2   106  GLY106     -0.2717
     39  N         -3.7020    3.2840   -3.2810 N.am  107  GLY107     -0.1956
     40  CA        -4.8190    3.1020   -4.1850 C.3   107  GLY107      0.1869
     41  C         -5.9450    4.0860   -3.9710 C.2   107  GLY107      0.2309
     42  O         -6.9570    4.0530   -4.6580 O.2   107  GLY107     -0.2863
     43  N         -4.6450   10.6940   -0.6530 N.3   110  TYR110     -0.1241
     44  CA        -3.6640   10.8380    0.4320 C.3   110  TYR110      0.1605
     45  C         -4.1800   11.6190    1.6310 C.2   110  TYR110      0.2264
     46  O         -3.5280   11.6690    2.6700 O.2   110  TYR110     -0.2867
     47  CB        -2.3990   11.5290   -0.0650 C.3   110  TYR110      0.0534
     48  CG        -1.4520   10.6270   -0.8200 C.ar  110  TYR110     -0.0201
     49  CD1       -1.6340   10.3770   -2.1690 C.ar  110  TYR110     -0.0009
     50  CD2       -0.3670   10.0360   -0.1770 C.ar  110  TYR110     -0.0009
     51  CE1       -0.7550    9.5660   -2.8760 C.ar  110  TYR110      0.0417
     52  CE2        0.5070    9.2020   -0.8660 C.ar  110  TYR110      0.0417
     53  CZ         0.3000    8.9700   -2.2160 C.ar  110  TYR110      0.1957
     54  OH         1.1660    8.1580   -2.9030 O.3   110  TYR110     -0.2866
     55  N          0.3050   -0.5660    4.6750 N.3   127  THR127     -0.1218
     56  CA         1.0850   -1.1780    3.5990 C.3   127  THR127      0.1862
     57  C          2.3790   -0.3630    3.4850 C.2   127  THR127      0.2287
     58  O          2.4260    0.7870    3.9030 O.2   127  THR127     -0.2866
     59  CB         0.3310   -1.1630    2.2640 C.3   127  THR127      0.1770
     60  OG1       -0.1630    0.1620    2.0240 O.3   127  THR127     -0.2211
     61  CG2       -0.8360   -2.1230    2.3130 C.3   127  THR127      0.0375
     62  N          4.3360    0.7910    0.9600 N.3   129  GLY129     -0.1210
     63  CA         4.4430    1.8740   -0.0170 C.3   129  GLY129      0.1956
     64  C          3.8930    3.1690    0.5330 C.2   129  GLY129      0.2611
     65  O          4.5990    4.1850    0.6340 O.2   129  GLY129     -0.2717
     66  N          2.6150    3.1450    0.8880 N.am  130  ARG130     -0.1979
     67  CA         1.9780    4.3260    1.4550 C.3   130  ARG130      0.1597
     68  C          2.6400    4.7520    2.7660 C.2   130  ARG130      0.2287
     69  O          2.8510    5.9490    2.9950 O.2   130  ARG130     -0.2864
     70  CB         0.4780    4.0890    1.6230 C.3   130  ARG130      0.0334
     71  CG        -0.2620    5.2140    2.2560 C.3   130  ARG130      0.0492
     72  CD        -0.2140    6.5030    1.3950 C.3   130  ARG130      0.2205
     73  NE        -0.8510    6.3960    0.0790 N.pl3 130  ARG130     -0.0865
     74  CZ        -2.1200    6.7230   -0.1620 C.cat 130  ARG130      0.5346
     75  NH1       -2.9050    7.1200    0.8270 N.pl3 130  ARG130      0.1354
     76  NH2       -2.6140    6.6440   -1.3870 N.pl3 130  ARG130      0.1354
     77  N          5.7230    6.7130    2.0140 N.3   133  ASP133     -0.1239
     78  CA         5.3280    8.0480    1.5260 C.3   133  ASP133      0.1674
     79  C          5.1290    8.9730    2.7330 C.2   133  ASP133      0.2266
     80  O          5.7360   10.0390    2.8260 O.2   133  ASP133     -0.2867
     81  CB         4.0270    8.0000    0.7110 C.3   133  ASP133      0.1410
     82  CG         4.1860    7.3030   -0.6270 C.2   133  ASP133      0.3668
     83  OD1        5.3220    7.2160   -1.1570 O.co2 133  ASP133     -0.2456
     84  OD2        3.1560    6.8570   -1.1750 O.co2 133  ASP133     -0.2456
     85  N          5.8150   -9.1070   -3.0380 N.3   159  MET159     -0.1245
     86  CA         5.1470   -7.9000   -3.5240 C.3   159  MET159      0.1570
     87  C          6.1950   -6.8380   -3.8320 C.2   159  MET159      0.2261
     88  O          5.8700   -5.7470   -4.3030 O.2   159  MET159     -0.2867
     89  CB         4.1740   -7.3520   -2.4810 C.3   159  MET159      0.0387
     90  CG         3.0050   -8.2790   -2.1310 C.3   159  MET159      0.0595
     91  SD         1.5350   -7.9250   -3.0980 S.3   159  MET159     -0.1393
     92  CE         2.0460   -6.4090   -3.8920 C.3   159  MET159      0.0692
     93  N          8.3990   -5.3620   -1.5940 N.3   161  PHE161     -0.1241
     94  CA         8.4790   -4.2970   -0.5980 C.3   161  PHE161      0.1605
     95  C          9.6670   -4.3830    0.3720 C.2   161  PHE161      0.2264
     96  O          9.6510   -3.7530    1.4260 O.2   161  PHE161     -0.2867
     97  CB         7.2000   -4.2810    0.2420 C.3   161  PHE161      0.0534
     98  CG         6.0220   -3.6400   -0.4310 C.ar  161  PHE161     -0.0203
     99  CD1        6.1270   -2.3760   -1.0050 C.ar  161  PHE161     -0.0042
    100  CD2        4.7890   -4.2760   -0.4380 C.ar  161  PHE161     -0.0042
    101  CE1        5.0290   -1.7730   -1.5960 C.ar  161  PHE161     -0.0003
    102  CE2        3.6870   -3.6880   -1.0230 C.ar  161  PHE161     -0.0003
    103  CZ         3.8060   -2.4230   -1.6060 C.ar  161  PHE161     -0.0000
@<TRIPOS>BOND
     1    24    23    2
     2    25    23    1
     3    42    41    2
     4    88    87    2
     5    40    41    1
     6    40    39    1
     7    23    22    1
     8    92    91    1
     9    87    86    1
    10    86    85    1
    11    86    89    1
    12    39    37   am
    13    91    90    1
    14    54    53    1
    15    51    53   ar
    16    51    49   ar
    17    22    21    1
    18    89    90    1
    19    53    52   ar
    20    49    48   ar
    21    21    20    1
    22    37    38    2
    23    37    36    1
    24   103   101   ar
    25   103   102   ar
    26   101    99   ar
    27    93    94    1
    28    34    32   ar
    29    76    74    2
    30    36    35    1
    31    84    82   ar
    32    83    82   ar
    33   102   100   ar
    34    99    98   ar
    35    33    32   ar
    36    52    50   ar
    37    48    50   ar
    38    48    47    1
    39    20    19    1
    40    32    31    1
    41    43    44    1
    42    82    81    1
    43    94    97    1
    44    94    95    1
    45   100    98   ar
    46    98    97    1
    47    14    12    1
    48    74    73    1
    49    74    75    1
    50    47    44    1
    51    63    64    1
    52    63    62    1
    53    19    16    1
    54    73    72    1
    55     4     3    2
    56    12     9    1
    57    12    13    1
    58    95    96    2
    59    44    45    1
    60    64    65    2
    61    64    66   am
    62    31    30    1
    63    15    16    1
    64    15    10   am
    65    81    78    1
    66     9    10    1
    67     9     8    1
    68    66    67    1
    69    30    27    1
    70    16    17    1
    71     3     8   am
    72     3     2    1
    73    26    17   am
    74    26    27    1
    75    72    71    1
    76    10    11    2
    77    67    70    1
    78    67    68    1
    79    78    77    1
    80    78    79    1
    81    70    71    1
    82    45    46    2
    83     5     2    1
    84     5     6    1
    85    17    18    2
    86    27    28    1
    87    60    59    1
    88     2     1    1
    89    59    61    1
    90    59    56    1
    91    79    80    2
    92     6     7    1
    93    68    69    2
    94    28    29    2
    95    57    56    1
    96    57    58    2
    97     1     7    1
    98    56    55    1
