@<TRIPOS>MOLECULE
/Users/jeffrey/Documents/Datasets/tough-c1/pocket-lpc-nucleotide/1dflA00-1.pdb
 160 155 0 0 0
SMALL
GASTEIGER

@<TRIPOS>ATOM
      1  N         -7.4340    0.2490    8.7040 N.3   101  ILE101     -0.1245
      2  CA        -7.5660    0.1900    7.2560 C.3   101  ILE101      0.1561
      3  C         -8.2440   -1.0770    6.7590 C.2   101  ILE101      0.2260
      4  O         -8.4350   -1.2540    5.5440 O.2   101  ILE101     -0.2867
      5  CB        -6.1630    0.2960    6.5820 C.3   101  ILE101      0.0252
      6  CG1       -5.2590   -0.8980    6.9190 C.3   101  ILE101      0.0019
      7  CG2       -5.5250    1.6070    6.9880 C.3   101  ILE101      0.0019
      8  CD1       -3.9650   -0.8970    6.1300 C.3   101  ILE101      0.0001
      9  N         -5.5910    1.6590    1.2620 N.3   113  ASN113     -0.1226
     10  CA        -4.1700    1.9930    1.2460 C.3   113  ASN113      0.1770
     11  C         -3.7230    3.0320    2.2960 C.2   113  ASN113      0.2439
     12  O         -4.1740    4.1820    2.2890 O.2   113  ASN113     -0.2733
     13  CB        -3.7930    2.4770   -0.1470 C.3   113  ASN113      0.1168
     14  CG        -2.3150    2.7350   -0.3110 C.2   113  ASN113      0.2627
     15  OD1       -1.5260    2.7090    0.6430 O.2   113  ASN113     -0.2716
     16  ND2       -1.9580    3.1010   -1.5200 N.am  113  ASN113     -0.0877
     17  N         -2.7970    2.6420    3.2000 N.am  114  PRO114     -0.2718
     18  CA        -2.2840    3.5200    4.2620 C.3   114  PRO114      0.1535
     19  C         -1.2630    4.5720    3.8810 C.2   114  PRO114      0.2599
     20  O         -1.1720    5.6160    4.5490 O.2   114  PRO114     -0.2715
     21  CB        -1.6360    2.5810    5.2600 C.3   114  PRO114      0.0310
     22  CG        -1.1450    1.3990    4.4130 C.3   114  PRO114      0.0237
     23  CD        -2.2930    1.2270    3.4400 C.3   114  PRO114      0.0939
     24  N         -0.5110    4.2940    2.8140 N.am  115  TYR115     -0.1960
     25  CA         0.5460    5.1880    2.3260 C.3   115  TYR115      0.1771
     26  C          1.4940    5.5200    3.4860 C.2   115  TYR115      0.2619
     27  O          1.9260    6.6560    3.6630 O.2   115  TYR115     -0.2715
     28  CB        -0.0490    6.4700    1.7290 C.3   115  TYR115      0.0574
     29  CG        -0.5740    6.3240    0.3010 C.ar  115  TYR115     -0.0198
     30  CD1        0.2570    5.8900   -0.7120 C.ar  115  TYR115     -0.0009
     31  CD2       -1.9150    6.6120    0.0400 C.ar  115  TYR115     -0.0009
     32  CE1       -0.2110    5.7340   -2.0170 C.ar  115  TYR115      0.0417
     33  CE2       -2.3670    6.4450   -1.2630 C.ar  115  TYR115      0.0417
     34  CZ        -1.5370    6.0320   -2.2550 C.ar  115  TYR115      0.1957
     35  OH        -2.0760    5.8840   -3.5410 O.3   115  TYR115     -0.2866
     36  N          1.8120    4.4950    4.2750 N.am  116  ARG116     -0.1963
     37  CA         2.6930    4.6330    5.4190 C.3   116  ARG116      0.1729
     38  C          2.8550    3.2430    6.0480 C.2   116  ARG116      0.2616
     39  O          1.9780    2.3890    5.9290 O.2   116  ARG116     -0.2715
     40  CB         2.0850    5.6350    6.3990 C.3   116  ARG116      0.0348
     41  CG         0.7980    5.2050    7.0670 C.3   116  ARG116      0.0492
     42  CD         0.2550    6.3360    7.9270 C.3   116  ARG116      0.2205
     43  NE        -0.9670    6.0360    8.6260 N.pl3 116  ARG116     -0.0865
     44  CZ        -1.1090    5.3780    9.7560 C.cat 116  ARG116      0.5346
     45  NH1       -0.0240    4.9620   10.3730 N.pl3 116  ARG116      0.1354
     46  NH2       -2.3110    5.2230   10.2640 N.pl3 116  ARG116      0.1354
     47  N          3.9770    3.0040    6.7100 N.am  117  ARG117     -0.1963
     48  CA         4.2020    1.6990    7.3110 C.3   117  ARG117      0.1729
     49  C          3.4800    1.5520    8.6400 C.2   117  ARG117      0.2616
     50  O          3.5040    2.4570    9.4760 O.2   117  ARG117     -0.2715
     51  CB         5.7050    1.4600    7.4840 C.3   117  ARG117      0.0348
     52  CG         6.3270    1.1280    6.1530 C.3   117  ARG117      0.0492
     53  CD         6.0850   -0.3090    5.7560 C.3   117  ARG117      0.2205
     54  NE         6.4810   -1.2770    6.7690 N.pl3 117  ARG117     -0.0865
     55  CZ         5.6460   -2.1400    7.3490 C.cat 117  ARG117      0.5346
     56  NH1        4.3430   -2.1580    7.0450 N.pl3 117  ARG117      0.1354
     57  NH2        6.1440   -2.9720    8.2810 N.pl3 117  ARG117      0.1354
     58  N          2.8400    0.4010    8.8200 N.am  118  LEU118     -0.1977
     59  CA         2.0890    0.1120   10.0360 C.3   118  LEU118      0.1596
     60  C          2.5820   -1.1310   10.7560 C.2   118  LEU118      0.2287
     61  O          2.8190   -2.1590   10.1350 O.2   118  LEU118     -0.2864
     62  CB         0.6140   -0.0640    9.6900 C.3   118  LEU118      0.0297
     63  CG        -0.2550    1.1770    9.5600 C.3   118  LEU118      0.0022
     64  CD1        0.1210    2.0320    8.3630 C.3   118  LEU118      0.0001
     65  CD2       -1.7310    0.7780    9.4560 C.3   118  LEU118      0.0001
     66  N          1.7370   -5.9560   10.9620 N.3   121  TYR121     -0.1241
     67  CA         2.1400   -7.1920   10.2890 C.3   121  TYR121      0.1605
     68  C          3.2350   -7.9960   11.0000 C.2   121  TYR121      0.2264
     69  O          3.6500   -9.0550   10.5190 O.2   121  TYR121     -0.2867
     70  CB         2.5880   -6.8500    8.8680 C.3   121  TYR121      0.0534
     71  CG         1.7270   -5.8200    8.1750 C.ar  121  TYR121     -0.0201
     72  CD1        0.4510   -6.1470    7.7100 C.ar  121  TYR121     -0.0009
     73  CD2        2.1940   -4.5230    7.9620 C.ar  121  TYR121     -0.0009
     74  CE1       -0.3360   -5.2120    7.0430 C.ar  121  TYR121      0.0417
     75  CE2        1.4190   -3.5820    7.2980 C.ar  121  TYR121      0.0417
     76  CZ         0.1570   -3.9320    6.8370 C.ar  121  TYR121      0.1957
     77  OH        -0.5930   -3.0200    6.1380 O.3   121  TYR121     -0.2866
     78  N         -5.3510    0.7440   -9.5420 N.3   167  SER167     -0.1202
     79  CA        -3.9060    0.7540   -9.5570 C.3   167  SER167      0.2020
     80  C         -3.3370    1.7010   -8.5160 C.2   167  SER167      0.2619
     81  O         -3.5960    2.8940   -8.5510 O.2   167  SER167     -0.2717
     82  CB        -3.4030    1.1320  -10.9470 C.3   167  SER167      0.2103
     83  OG        -3.7630    2.4460  -11.2530 O.3   167  SER167     -0.2182
     84  N         -2.5560    1.1420   -7.5950 N.am  168  GLY168     -0.1942
     85  CA        -1.9470    1.9430   -6.5490 C.3   168  GLY168      0.2014
     86  C         -2.7220    1.7670   -5.2710 C.2   168  GLY168      0.2639
     87  O         -2.4560    2.4670   -4.2910 O.2   168  GLY168     -0.2714
     88  N         -3.6700    0.8210   -5.2840 N.am  169  ALA169     -0.1963
     89  CA        -4.5370    0.5390   -4.1250 C.3   169  ALA169      0.1728
     90  C         -3.9160   -0.2530   -2.9940 C.2   169  ALA169      0.2617
     91  O         -3.9510    0.1900   -1.8350 O.2   169  ALA169     -0.2715
     92  CB        -5.7820   -0.1810   -4.5820 C.3   169  ALA169      0.0334
     93  N         -3.3670   -1.4250   -3.3310 N.am  170  GLY170     -0.1940
     94  CA        -2.7530   -2.2670   -2.3260 C.3   170  GLY170      0.2014
     95  C         -2.7860   -3.7220   -2.7570 C.2   170  GLY170      0.2639
     96  O         -2.4400   -4.6180   -1.9770 O.2   170  GLY170     -0.2714
     97  N         -3.1950   -3.9760   -3.9980 N.am  171  LYS171     -0.1963
     98  CA        -3.2590   -5.3640   -4.4760 C.3   171  LYS171      0.1728
     99  C         -1.9790   -6.1620   -4.1710 C.2   171  LYS171      0.2617
    100  O         -2.0330   -7.2090   -3.5290 O.2   171  LYS171     -0.2715
    101  CB        -3.5060   -5.4140   -5.9980 C.3   171  LYS171      0.0311
    102  CG        -4.8320   -4.8230   -6.4430 C.3   171  LYS171      0.0038
    103  CD        -5.0470   -4.8720   -7.9560 C.3   171  LYS171      0.0206
    104  CE        -3.8490   -4.3760   -8.7780 C.3   171  LYS171      0.1093
    105  NZ        -3.4540   -2.9350   -8.5620 N.3   171  LYS171     -0.1314
    106  N         -0.8320   -5.6590   -4.6400 N.am  172  THR172     -0.1937
    107  CA         0.4680   -6.3080   -4.4550 C.3   172  THR172      0.2028
    108  C          0.9170   -6.4010   -3.0000 C.2   172  THR172      0.2642
    109  O          1.2070   -7.4970   -2.5110 O.2   172  THR172     -0.2714
    110  CB         1.5270   -5.5800   -5.2900 C.3   172  THR172      0.1808
    111  OG1        1.5920   -4.2320   -4.8520 O.3   172  THR172     -0.2208
    112  CG2        1.2260   -5.6460   -6.7740 C.3   172  THR172      0.0379
    113  N          0.9760   -5.2700   -2.3110 N.am  173  GLU173     -0.1963
    114  CA         1.3680   -5.2650   -0.9070 C.3   173  GLU173      0.1733
    115  C          0.6170   -6.3080   -0.0810 C.2   173  GLU173      0.2616
    116  O          1.2000   -7.0220    0.7400 O.2   173  GLU173     -0.2715
    117  CB         1.1100   -3.9030   -0.3150 C.3   173  GLU173      0.0429
    118  CG         1.7030   -3.6360    1.0150 C.3   173  GLU173      0.1163
    119  CD         1.2250   -2.3370    1.6600 C.2   173  GLU173      0.3649
    120  OE1        0.4610   -1.5970    0.9670 O.co2 173  GLU173     -0.2457
    121  OE2        1.6600   -2.0670    2.7790 O.co2 173  GLU173     -0.2457
    122  N         -0.6880   -6.3850   -0.3070 N.am  174  ASN174     -0.1972
    123  CA        -1.5380   -7.3210    0.4050 C.3   174  ASN174      0.1688
    124  C         -1.3410   -8.7590   -0.0580 C.2   174  ASN174      0.2292
    125  O         -1.4940   -9.6940    0.7310 O.2   174  ASN174     -0.2864
    126  CB        -3.0070   -6.9190    0.2340 C.3   174  ASN174      0.1181
    127  CG        -3.3750   -5.7340    1.1010 C.2   174  ASN174      0.2629
    128  OD1       -2.9100   -5.6410    2.2500 O.2   174  ASN174     -0.2716
    129  ND2       -4.1810   -4.8210    0.5740 N.am  174  ASN174     -0.0877
    130  N          1.7940    4.5950   -9.9050 N.3   207  ASN207     -0.1240
    131  CA         2.5880    3.8110   -8.9510 C.3   207  ASN207      0.1653
    132  C          4.1030    3.8620   -9.1420 C.2   207  ASN207      0.2266
    133  O          4.6050    3.5790  -10.2340 O.2   207  ASN207     -0.2867
    134  CB         2.1580    2.3410   -9.0020 C.3   207  ASN207      0.1155
    135  CG         2.2560    1.6080   -7.6700 C.2   207  ASN207      0.2627
    136  OD1        2.8300    2.1230   -6.6770 O.2   207  ASN207     -0.2716
    137  ND2        1.7380    0.3860   -7.5500 N.am  207  ASN207     -0.0877
    138  N          6.0360    1.8230   -8.0380 N.3   209  ASN209     -0.1240
    139  CA         6.4030    0.4220   -8.1950 C.3   209  ASN209      0.1653
    140  C          5.2480   -0.3610   -8.8610 C.2   209  ASN209      0.2266
    141  O          4.7220   -1.3760   -8.3460 O.2   209  ASN209     -0.2867
    142  CB         6.7590   -0.1830   -6.8270 C.3   209  ASN209      0.1155
    143  CG         8.0570    0.2750   -6.2870 C.2   209  ASN209      0.2627
    144  OD1        9.0790   -0.0230   -6.9180 O.2   209  ASN209     -0.2716
    145  ND2        8.0820    0.9700   -5.2130 N.am  209  ASN209     -0.0877
    146  N          3.2610   -2.8820  -11.0010 N.3   211  SER211     -0.1217
    147  CA         3.4500   -4.2350  -11.4990 C.3   211  SER211      0.1889
    148  C          3.0090   -4.2390  -12.9620 C.2   211  SER211      0.2288
    149  O          1.8700   -3.8850  -13.2590 O.2   211  SER211     -0.2866
    150  CB         2.5900   -5.2110  -10.6960 C.3   211  SER211      0.2089
    151  OG         2.6650   -6.4800  -11.1150 O.3   211  SER211     -0.2183
    152  N         -1.2270   10.3770   -3.8590 N.3   618  LYS618     -0.1245
    153  CA        -0.1990    9.4900   -3.3330 C.3   618  LYS618      0.1561
    154  C          0.2420    9.8530   -1.9290 C.2   618  LYS618      0.2260
    155  O          1.2130    9.2740   -1.4510 O.2   618  LYS618     -0.2867
    156  CB         1.0370    9.4900   -4.2400 C.3   618  LYS618      0.0271
    157  CG         0.8090    8.7630   -5.5770 C.3   618  LYS618      0.0035
    158  CD         2.0190    8.8340   -6.4740 C.3   618  LYS618      0.0206
    159  CE         3.1250    7.9790   -5.9610 C.3   618  LYS618      0.1093
    160  NZ         2.7900    6.5410   -6.1670 N.3   618  LYS618     -0.1314
@<TRIPOS>BOND
     1   149   148    2
     2   148   147    1
     3   147   146    1
     4   147   150    1
     5    83    82    1
     6   151   150    1
     7    82    79    1
     8   133   132    2
     9   130   131    1
    10    79    78    1
    11    79    80    1
    12   132   131    1
    13   134   131    1
    14   134   135    1
    15   140   141    2
    16   140   139    1
    17   104   105    1
    18   104   103    1
    19    81    80    2
    20    80    84   am
    21   139   138    1
    22   139   142    1
    23   103   102    1
    24   135   137   am
    25   135   136    2
    26    84    85    1
    27   144   143    2
    28   142   143    1
    29   112   110    1
    30    85    86    1
    31   158   159    1
    32   158   157    1
    33   102   101    1
    34   143   145   am
    35   160   159    1
    36   101    98    1
    37   157   156    1
    38   110   111    1
    39   110   107    1
    40    88    86   am
    41    88    89    1
    42    86    87    2
    43   106   107    1
    44   106    99   am
    45    92    89    1
    46    98    99    1
    47    98    97    1
    48   107   108    1
    49   156   153    1
    50    99   100    2
    51    89    90    1
    52    97    95   am
    53   152   153    1
    54    35    34    1
    55   153   154    1
    56    93    90   am
    57    93    94    1
    58   108   109    2
    59   108   113   am
    60    90    91    2
    61    95    94    1
    62    95    96    2
    63   113   114    1
    64    34    32   ar
    65    34    33   ar
    66    32    30   ar
    67   154   155    2
    68    16    14   am
    69    33    31   ar
    70   114   117    1
    71   114   115    1
    72    30    29   ar
    73   117   118    1
    74    14    13    1
    75    14    15    2
    76   122   115   am
    77   122   123    1
    78    13    10    1
    79   115   116    2
    80   124   123    1
    81   124   125    2
    82    31    29   ar
    83   126   123    1
    84   126   127    1
    85    29    28    1
    86   129   127   am
    87   120   119   ar
    88   118   119    1
    89   127   128    2
    90    10     9    1
    91    10    11    1
    92   119   121   ar
    93    28    25    1
    94    12    11    2
    95    11    17   am
    96    25    24    1
    97    25    26    1
    98    24    19   am
    99    17    23    1
   100    17    18    1
   101    23    22    1
   102    26    27    2
   103    26    36   am
   104    19    18    1
   105    19    20    2
   106    18    21    1
   107    36    37    1
   108    22    21    1
   109    37    38    1
   110    37    40    1
   111     4     3    2
   112    53    52    1
   113    53    54    1
   114    39    38    2
   115    38    47   am
   116     8     6    1
   117    77    76    1
   118    52    51    1
   119    40    41    1
   120     5     6    1
   121     5     7    1
   122     5     2    1
   123    47    48    1
   124     3     2    1
   125    54    55    2
   126    76    74   ar
   127    76    75   ar
   128    74    72   ar
   129    56    55    1
   130    41    42    1
   131     2     1    1
   132    75    73   ar
   133    48    51    1
   134    48    49    1
   135    55    57    1
   136    72    71   ar
   137    42    43    1
   138    73    71   ar
   139    71    70    1
   140    64    63    1
   141    43    44    2
   142    49    58   am
   143    49    50    2
   144    58    59    1
   145    70    67    1
   146    65    63    1
   147    63    62    1
   148    62    59    1
   149    44    46    1
   150    44    45    1
   151    59    60    1
   152    61    60    2
   153    67    66    1
   154    67    68    1
   155    69    68    2
