@<TRIPOS>MOLECULE
/Users/jeffrey/Documents/Datasets/tough-c1/pocket-lpc-heme/1fdhB00-1.pdb
 198 188 0 0 0
SMALL
GASTEIGER

@<TRIPOS>ATOM
      1  N         -3.9580    2.6890    8.0110 N.3    28  LEU28      -0.1245
      2  CA        -4.6280    2.2610    6.7750 C.3    28  LEU28       0.1561
      3  C         -6.1090    2.5560    7.0230 C.2    28  LEU28       0.2260
      4  O         -6.8410    2.9540    6.1050 O.2    28  LEU28      -0.2867
      5  CB        -4.3500    0.7700    6.5060 C.3    28  LEU28       0.0270
      6  CG        -4.8670    0.1750    5.2130 C.3    28  LEU28       0.0019
      7  CD1       -4.4170    1.0260    4.0500 C.3    28  LEU28       0.0001
      8  CD2       -4.3620   -1.2380    5.0410 C.3    28  LEU28       0.0001
      9  N         -6.6180    6.2570    6.7180 N.3    31  LEU31      -0.1245
     10  CA        -6.3000    6.7390    5.3670 C.3    31  LEU31       0.1561
     11  C         -7.6300    6.5770    4.6280 C.2    31  LEU31       0.2260
     12  O         -8.0840    7.4910    3.9260 O.2    31  LEU31      -0.2867
     13  CB        -5.1500    5.9100    4.7620 C.3    31  LEU31       0.0270
     14  CG        -4.9990    5.8990    3.2550 C.3    31  LEU31       0.0019
     15  CD1       -4.1310    7.0580    2.8270 C.3    31  LEU31       0.0001
     16  CD2       -4.3840    4.6000    2.7940 C.3    31  LEU31       0.0001
     17  N         -9.5330    6.4790   -1.3360 N.3    38  THR38      -0.1218
     18  CA        -8.4410    5.4960   -1.3070 C.3    38  THR38       0.1862
     19  C         -9.3100    4.2430   -1.1910 C.2    38  THR38       0.2287
     20  O         -8.8670    3.1290   -1.5070 O.2    38  THR38      -0.2866
     21  CB        -7.5260    5.8620   -0.1210 C.3    38  THR38       0.1770
     22  OG1       -8.4270    6.3100    0.8860 O.3    38  THR38      -0.2211
     23  CG2       -6.5400    6.9460   -0.4660 C.3    38  THR38       0.0375
     24  N         -9.3440    1.1230   -3.9750 N.3    41  PHE41      -0.1227
     25  CA        -8.6860   -0.1640   -4.2390 C.3    41  PHE41       0.1736
     26  C         -9.1530   -1.3350   -3.3740 C.2    41  PHE41       0.2595
     27  O         -8.5770   -2.4310   -3.4220 O.2    41  PHE41      -0.2718
     28  CB        -7.1870   -0.0080   -4.0530 C.3    41  PHE41       0.0547
     29  CG        -6.5760    1.1420   -4.8000 C.ar   41  PHE41      -0.0202
     30  CD1       -6.3080    2.2920   -4.1350 C.ar   41  PHE41      -0.0042
     31  CD2       -6.2070    1.0390   -6.1160 C.ar   41  PHE41      -0.0042
     32  CE1       -5.7150    3.4130   -4.7820 C.ar   41  PHE41      -0.0003
     33  CE2       -5.5690    2.1600   -6.7490 C.ar   41  PHE41      -0.0003
     34  CZ        -5.3690    3.3180   -6.0900 C.ar   41  PHE41      -0.0000
     35  N        -10.1910   -1.0870   -2.5970 N.am   42  PHE42      -0.1976
     36  CA       -10.7380   -2.1250   -1.7110 C.3    42  PHE42       0.1639
     37  C        -12.1290   -2.6350   -1.3340 C.2    42  PHE42       0.2290
     38  O        -12.4210   -2.8740   -0.1530 O.2    42  PHE42      -0.2864
     39  CB       -10.2620   -1.8750   -0.2920 C.3    42  PHE42       0.0560
     40  CG        -8.8150   -1.4940   -0.1710 C.ar   42  PHE42      -0.0200
     41  CD1       -8.4840   -0.1850   -0.0610 C.ar   42  PHE42      -0.0042
     42  CD2       -7.8210   -2.4360   -0.0860 C.ar   42  PHE42      -0.0042
     43  CE1       -7.1310    0.2400    0.0730 C.ar   42  PHE42      -0.0003
     44  CE2       -6.4640   -2.0000    0.0930 C.ar   42  PHE42      -0.0003
     45  CZ        -6.1470   -0.6920    0.1340 C.ar   42  PHE42      -0.0000
     46  N        -13.0130   -5.9010    0.0560 N.3    45  PHE45      -0.1241
     47  CA       -13.1390   -5.9010    1.5200 C.3    45  PHE45       0.1605
     48  C        -14.3280   -5.8100    2.4770 C.2    45  PHE45       0.2264
     49  O        -14.1740   -5.9440    3.6990 O.2    45  PHE45      -0.2867
     50  CB       -12.3220   -4.7570    2.0930 C.3    45  PHE45       0.0534
     51  CG       -10.8350   -4.9140    1.9570 C.ar   45  PHE45      -0.0203
     52  CD1      -10.0210   -4.2440    2.8060 C.ar   45  PHE45      -0.0042
     53  CD2      -10.2760   -5.7780    1.0490 C.ar   45  PHE45      -0.0042
     54  CE1       -8.6030   -4.3620    2.7380 C.ar   45  PHE45      -0.0003
     55  CE2       -8.8470   -5.9240    1.0180 C.ar   45  PHE45      -0.0003
     56  CZ        -8.0510   -5.2010    1.8270 C.ar   45  PHE45      -0.0000
     57  N         -4.3230   -6.0290    6.0400 N.3    63  HIS63      -0.1241
     58  CA        -3.4560   -5.5040    4.9760 C.3    63  HIS63       0.1621
     59  C         -2.7670   -4.2800    5.5810 C.2    63  HIS63       0.2264
     60  O         -1.7050   -3.8480    5.1090 O.2    63  HIS63      -0.2867
     61  CB        -4.3120   -5.1770    3.7550 C.3    63  HIS63       0.0745
     62  CG        -3.6320   -4.3240    2.7130 C.ar   63  HIS63       0.0817
     63  ND1       -2.5990   -4.8040    1.9250 N.ar   63  HIS63      -0.2268
     64  CD2       -3.8120   -3.0270    2.3520 C.ar   63  HIS63       0.1154
     65  CE1       -2.1870   -3.8320    1.1350 C.ar   63  HIS63       0.1986
     66  NE2       -2.9200   -2.7650    1.3620 N.ar   63  HIS63      -0.2212
     67  N          0.1660   -5.7280    6.9540 N.3    66  LYS66      -0.1231
     68  CA         0.9730   -6.3120    5.8740 C.3    66  LYS66       0.1693
     69  C          1.8190   -5.1350    5.3900 C.2    66  LYS66       0.2592
     70  O          3.0480   -5.2420    5.2670 O.2    66  LYS66      -0.2718
     71  CB         0.0910   -6.8950    4.7750 C.3    66  LYS66       0.0285
     72  CG         0.8440   -7.6280    3.6810 C.3    66  LYS66       0.0035
     73  CD        -0.0030   -8.7510    3.0920 C.3    66  LYS66       0.0206
     74  CE         0.8090   -9.6290    2.1520 C.3    66  LYS66       0.1093
     75  NZ         0.0240  -10.8080    1.7210 N.3    66  LYS66      -0.1314
     76  N          1.1500   -4.0290    5.1210 N.am   67  VAL67      -0.1966
     77  CA         1.8420   -2.8250    4.6420 C.3    67  VAL67       0.1727
     78  C          2.9250   -2.3220    5.5970 C.2    67  VAL67       0.2616
     79  O          4.0730   -2.0870    5.1930 O.2    67  VAL67      -0.2715
     80  CB         0.8320   -1.7090    4.4090 C.3    67  VAL67       0.0290
     81  CG1        1.3640   -0.2810    4.6870 C.3    67  VAL67       0.0023
     82  CG2        0.1640   -1.8200    3.0650 C.3    67  VAL67       0.0023
     83  N          2.5430   -2.1600    6.8500 N.am   68  LEU68      -0.1977
     84  CA         3.4840   -1.6760    7.8710 C.3    68  LEU68       0.1596
     85  C          4.6990   -2.5320    8.2300 C.2    68  LEU68       0.2287
     86  O          5.7150   -2.0210    8.7230 O.2    68  LEU68      -0.2864
     87  CB         2.7490   -1.4400    9.2040 C.3    68  LEU68       0.0297
     88  CG         2.8480   -0.0670    9.8340 C.3    68  LEU68       0.0022
     89  CD1        3.9100   -0.0800   10.9070 C.3    68  LEU68       0.0001
     90  CD2        3.1810    0.9740    8.7920 C.3    68  LEU68       0.0001
     91  N          5.9520   -4.4050    5.9180 N.3    70  SER70      -0.1202
     92  CA         6.7030   -4.2770    4.6610 C.3    70  SER70       0.2020
     93  C          7.6000   -3.0840    4.9970 C.2    70  SER70       0.2618
     94  O          8.7860   -3.0580    4.6360 O.2    70  SER70      -0.2717
     95  CB         5.7600   -4.0490    3.5010 C.3    70  SER70       0.2103
     96  OG         6.3340   -3.2090    2.5040 O.3    70  SER70      -0.2182
     97  N          7.0210   -2.1160    5.6800 N.am   71  LEU71      -0.1979
     98  CA         7.7690   -0.9090    6.0630 C.3    71  LEU71       0.1596
     99  C          8.7820   -0.9760    7.2070 C.2    71  LEU71       0.2287
    100  O          9.8230   -0.3040    7.1750 O.2    71  LEU71      -0.2864
    101  CB         6.7960    0.2170    6.4610 C.3    71  LEU71       0.0297
    102  CG         7.3860    1.5170    6.9660 C.3    71  LEU71       0.0022
    103  CD1        7.0020    2.6400    6.0320 C.3    71  LEU71       0.0001
    104  CD2        6.8940    1.8170    8.3590 C.3    71  LEU71       0.0001
    105  N         12.8430   -1.6810   -2.1090 N.3    85  PHE85      -0.1241
    106  CA        11.4770   -1.7010   -2.6490 C.3    85  PHE85       0.1605
    107  C         11.2020   -1.7930   -4.1520 C.2    85  PHE85       0.2264
    108  O         10.0530   -1.6520   -4.5980 O.2    85  PHE85      -0.2867
    109  CB        10.7420   -0.4510   -2.2010 C.3    85  PHE85       0.0534
    110  CG        10.3230   -0.4510   -0.7590 C.ar   85  PHE85      -0.0203
    111  CD1       10.9420    0.3880    0.1050 C.ar   85  PHE85      -0.0042
    112  CD2        9.2780   -1.2160   -0.3060 C.ar   85  PHE85      -0.0042
    113  CE1       10.5800    0.4480    1.4830 C.ar   85  PHE85      -0.0003
    114  CE2        8.8920   -1.1170    1.0740 C.ar   85  PHE85      -0.0003
    115  CZ         9.5610   -0.3250    1.9340 C.ar   85  PHE85      -0.0000
    116  N          8.4910   -4.3000   -5.0880 N.3    88  LEU88      -0.1245
    117  CA         7.1670   -3.8830   -4.6030 C.3    88  LEU88       0.1561
    118  C          6.6980   -2.6870   -5.4340 C.2    88  LEU88       0.2260
    119  O          5.4900   -2.4610   -5.5970 O.2    88  LEU88      -0.2867
    120  CB         7.2370   -3.5190   -3.1080 C.3    88  LEU88       0.0270
    121  CG         6.8650   -4.5860   -2.1000 C.3    88  LEU88       0.0019
    122  CD1        6.9200   -4.0040   -0.7070 C.3    88  LEU88       0.0001
    123  CD2        5.4820   -5.1200   -2.3780 C.3    88  LEU88       0.0001
    124  N          5.6100   -3.9380   -8.8430 N.3    91  LEU91      -0.1231
    125  CA         4.3030   -4.5720   -8.6230 C.3    91  LEU91       0.1693
    126  C          3.0760   -3.6840   -8.4130 C.2    91  LEU91       0.2592
    127  O          1.9620   -4.0280   -8.8320 O.2    91  LEU91      -0.2718
    128  CB         4.3570   -5.4880   -7.3850 C.3    91  LEU91       0.0284
    129  CG         3.0830   -6.1880   -6.9640 C.3    91  LEU91       0.0019
    130  CD1        3.0040   -7.5380   -7.6360 C.3    91  LEU91       0.0001
    131  CD2        3.0410   -6.3560   -5.4640 C.3    91  LEU91       0.0001
    132  N          3.2980   -2.5560   -7.7640 N.am   92  HIS92      -0.1976
    133  CA         2.2030   -1.6140   -7.4910 C.3    92  HIS92       0.1656
    134  C          1.8580   -0.8500   -8.7700 C.2    92  HIS92       0.2291
    135  O          0.7370   -0.3410   -8.9240 O.2    92  HIS92      -0.2864
    136  CB         2.6320   -0.6660   -6.3730 C.3    92  HIS92       0.0771
    137  CG         2.3780   -1.1750   -4.9770 C.ar   92  HIS92       0.0820
    138  ND1        3.2870   -1.9800   -4.3080 N.ar   92  HIS92      -0.2267
    139  CD2        1.3200   -1.0230   -4.1400 C.ar   92  HIS92       0.1154
    140  CE1        2.7840   -2.2910   -3.1300 C.ar   92  HIS92       0.1986
    141  NE2        1.6160   -1.7060   -3.0020 N.ar   92  HIS92      -0.2212
    142  N         -1.0980   -3.6620   -9.6240 N.3    96  LEU96      -0.1245
    143  CA        -2.0860   -3.0580   -8.7180 C.3    96  LEU96       0.1561
    144  C         -2.6570   -1.7290   -9.2150 C.2    96  LEU96       0.2260
    145  O         -3.7920   -1.3580   -8.8770 O.2    96  LEU96      -0.2867
    146  CB        -1.4580   -2.8160   -7.3310 C.3    96  LEU96       0.0270
    147  CG        -1.0160   -4.0250   -6.5320 C.3    96  LEU96       0.0019
    148  CD1       -0.4880   -3.5760   -5.1900 C.3    96  LEU96       0.0001
    149  CD2       -2.1670   -4.9830   -6.3390 C.3    96  LEU96       0.0001
    150  N         -1.7820    1.4950   -8.5370 N.3    98  VAL98      -0.1245
    151  CA        -2.0190    2.4740   -7.4670 C.3    98  VAL98       0.1561
    152  C         -1.3410    3.8130   -7.7580 C.2    98  VAL98       0.2260
    153  O         -0.1390    3.8660   -8.0590 O.2    98  VAL98      -0.2867
    154  CB        -1.5170    1.9210   -6.1410 C.3    98  VAL98       0.0252
    155  CG1       -1.7590    2.8390   -4.9180 C.3    98  VAL98       0.0019
    156  CG2       -1.9850    0.5090   -5.9020 C.3    98  VAL98       0.0019
    157  N         -0.6980    8.1400   -3.4100 N.3   102  ASN102     -0.1225
    158  CA        -1.1980    7.5270   -2.1720 C.3   102  ASN102      0.1785
    159  C         -0.1660    7.1880   -1.0950 C.2   102  ASN102      0.2597
    160  O         -0.4740    7.1960    0.1060 O.2   102  ASN102     -0.2718
    161  CB        -1.9480    6.2190   -2.5030 C.3   102  ASN102      0.1169
    162  CG        -3.2380    6.4960   -3.2300 C.2   102  ASN102      0.2627
    163  OD1       -3.6210    5.9000   -4.2210 O.2   102  ASN102     -0.2716
    164  ND2       -4.0530    7.4640   -2.6560 N.am  102  ASN102     -0.0877
    165  N          1.0410    6.8940   -1.5390 N.am  103  PHE103     -0.1976
    166  CA         2.1240    6.5450   -0.6090 C.3   103  PHE103      0.1639
    167  C          2.3580    7.7860    0.2530 C.2   103  PHE103      0.2290
    168  O          2.6000    7.6830    1.4650 O.2   103  PHE103     -0.2864
    169  CB         3.3500    6.1280   -1.4000 C.3   103  PHE103      0.0560
    170  CG         3.1250    4.9950   -2.3600 C.ar  103  PHE103     -0.0200
    171  CD1        2.2140    4.0420   -2.0530 C.ar  103  PHE103     -0.0042
    172  CD2        3.7570    4.9400   -3.5770 C.ar  103  PHE103     -0.0042
    173  CE1        1.9430    2.9510   -2.9280 C.ar  103  PHE103     -0.0003
    174  CE2        3.4430    3.8590   -4.4710 C.ar  103  PHE103     -0.0003
    175  CZ         2.5820    2.8850   -4.1220 C.ar  103  PHE103     -0.0000
    176  N         -0.5070    8.2640    2.7400 N.3   106  LEU106     -0.1245
    177  CA        -0.3850    7.3170    3.8590 C.3   106  LEU106      0.1561
    178  C          0.8160    7.6530    4.7450 C.2   106  LEU106      0.2260
    179  O          0.8060    7.3920    5.9560 O.2   106  LEU106     -0.2867
    180  CB        -0.2410    5.8790    3.3250 C.3   106  LEU106      0.0270
    181  CG         0.0100    4.7720    4.3280 C.3   106  LEU106      0.0019
    182  CD1       -1.3090    4.2650    4.8570 C.3   106  LEU106      0.0001
    183  CD2        0.7780    3.6410    3.6890 C.3   106  LEU106      0.0001
    184  N         10.3290    6.6900    1.4650 N.3   137  VAL137     -0.1245
    185  CA         9.6640    5.3950    1.2630 C.3   137  VAL137      0.1561
    186  C          8.6830    5.5490    0.1000 C.2   137  VAL137      0.2260
    187  O          8.5830    4.6700   -0.7690 O.2   137  VAL137     -0.2867
    188  CB         8.9610    4.9700    2.5450 C.3   137  VAL137      0.0252
    189  CG1        7.6590    4.1580    2.3360 C.3   137  VAL137      0.0019
    190  CG2        9.9030    4.3060    3.5140 C.3   137  VAL137      0.0019
    191  N          8.9920    3.6760   -3.5340 N.3   141  LEU141     -0.1245
    192  CA         7.8610    2.8420   -3.9620 C.3   141  LEU141      0.1561
    193  C          7.3980    3.3050   -5.3450 C.2   141  LEU141      0.2260
    194  O          6.7340    2.5570   -6.0780 O.2   141  LEU141     -0.2867
    195  CB         6.7110    2.9390   -2.9420 C.3   141  LEU141      0.0270
    196  CG         6.5750    1.8330   -1.9180 C.3   141  LEU141      0.0019
    197  CD1        5.1580    1.8010   -1.3960 C.3   141  LEU141      0.0001
    198  CD2        6.9270    0.4980   -2.5280 C.3   141  LEU141      0.0001
@<TRIPOS>BOND
     1   142   143    1
     2   144   145    2
     3   144   143    1
     4   135   134    2
     5   124   125    1
     6   127   126    2
     7   134   133    1
     8   143   146    1
     9   125   126    1
    10   125   128    1
    11   150   151    1
    12   126   132   am
    13   153   152    2
    14   132   133    1
    15   152   151    1
    16   130   129    1
    17   133   136    1
    18   151   154    1
    19   128   129    1
    20   146   147    1
    21   129   131    1
    22    33    31   ar
    23    33    34   ar
    24   147   149    1
    25   147   148    1
    26   136   137    1
    27   154   156    1
    28   154   155    1
    29    31    29   ar
    30    34    32   ar
    31   194   193    2
    32   119   118    2
    33   118   117    1
    34   193   192    1
    35   116   117    1
    36   137   138   ar
    37   137   139   ar
    38    29    30   ar
    39    29    28    1
    40    32    30   ar
    41   117   120    1
    42   108   107    2
    43   174   175   ar
    44   174   172   ar
    45   138   140   ar
    46    25    28    1
    47    25    24    1
    48    25    26    1
    49   163   162    2
    50   107   106    1
    51   139   141   ar
    52   175   173   ar
    53   192   191    1
    54   192   195    1
    55   172   170   ar
    56    27    26    2
    57   157   158    1
    58    26    35   am
    59   162   164   am
    60   162   161    1
    61   140   141   ar
    62   120   121    1
    63   195   196    1
    64   173   171   ar
    65   106   109    1
    66   106   105    1
    67    35    36    1
    68   198   196    1
    69   161   158    1
    70   123   121    1
    71   170   171   ar
    72   170   169    1
    73   109   110    1
    74   158   159    1
    75   121   122    1
    76   196   197    1
    77    36    37    1
    78    36    39    1
    79   165   159   am
    80   165   166    1
    81    20    19    2
    82   169   166    1
    83    17    18    1
    84    37    38    2
    85    18    19    1
    86    18    21    1
    87   159   160    2
    88   187   186    2
    89   110   112   ar
    90   110   111   ar
    91   166   167    1
    92    23    21    1
    93   112   114   ar
    94    39    40    1
    95    40    42   ar
    96    40    41   ar
    97    21    22    1
    98    42    44   ar
    99    41    43   ar
   100    46    47    1
   101    43    45   ar
   102    44    45   ar
   103   186   185    1
   104   111   113   ar
   105   167   168    2
   106    55    53   ar
   107    55    56   ar
   108    53    51   ar
   109   114   115   ar
   110    65    66   ar
   111    65    63   ar
   112   185   184    1
   113   185   188    1
   114    66    64   ar
   115   113   115   ar
   116    47    50    1
   117    47    48    1
   118    75    74    1
   119    56    54   ar
   120    63    62   ar
   121    51    50    1
   122    51    52   ar
   123    74    73    1
   124   189   188    1
   125    64    62   ar
   126    48    49    2
   127    96    95    1
   128   188   190    1
   129    62    61    1
   130    54    52   ar
   131   176   177    1
   132    16    14    1
   133    15    14    1
   134    82    80    1
   135    73    72    1
   136    14    13    1
   137   180   177    1
   138   180   181    1
   139    95    92    1
   140    72    71    1
   141   183   181    1
   142    61    58    1
   143   177   178    1
   144    12    11    2
   145     7     6    1
   146   181   182    1
   147    80    77    1
   148    80    81    1
   149    11    10    1
   150    94    93    2
   151    77    76    1
   152    77    78    1
   153    92    93    1
   154    92    91    1
   155   178   179    2
   156    13    10    1
   157    71    68    1
   158    58    59    1
   159    58    57    1
   160    93    97   am
   161     8     6    1
   162    60    59    2
   163    76    69   am
   164    79    78    2
   165     6     5    1
   166    70    69    2
   167    10     9    1
   168    69    68    1
   169    78    83   am
   170    97    98    1
   171    68    67    1
   172   103   102    1
   173    98   101    1
   174    98    99    1
   175     4     3    2
   176   101   102    1
   177     5     2    1
   178     2     3    1
   179     2     1    1
   180    83    84    1
   181   102   104    1
   182   100    99    2
   183    84    85    1
   184    84    87    1
   185    85    86    2
   186    90    88    1
   187    87    88    1
   188    88    89    1
