@<TRIPOS>MOLECULE
/Users/jeffrey/Documents/Datasets/tough-c1/pocket-lpc-nucleotide/1u0jA00-1.pdb
 106 104 0 0 0
SMALL
GASTEIGER

@<TRIPOS>ATOM
      1  N          0.0350    9.2330    2.7010 N.3   113  ALA113     -0.1231
      2  CA         0.1130    7.8820    3.2270 C.3   113  ALA113      0.1694
      3  C         -0.9100    6.9420    2.6060 C.2   113  ALA113      0.2593
      4  O         -1.9840    7.3630    2.1610 O.2   113  ALA113     -0.2718
      5  CB        -0.0450    7.9040    4.7400 C.3   113  ALA113      0.0304
      6  N         -0.5410    5.6640    2.5730 N.am  114  THR114     -0.1939
      7  CA        -1.3790    4.5910    2.0560 C.3   114  THR114      0.2028
      8  C         -1.5650    4.6120    0.5530 C.2   114  THR114      0.2643
      9  O         -2.5830    4.1500    0.0530 O.2   114  THR114     -0.2714
     10  CB        -2.7730    4.6160    2.7150 C.3   114  THR114      0.1808
     11  OG1       -2.6360    5.0140    4.0820 O.3   114  THR114     -0.2208
     12  CG2       -3.4080    3.2400    2.6720 C.3   114  THR114      0.0379
     13  N         -0.5890    5.1400   -0.1730 N.am  115  THR115     -0.1936
     14  CA        -0.7050    5.1690   -1.6230 C.3   115  THR115      0.2028
     15  C          0.0880    4.0260   -2.2730 C.2   115  THR115      0.2643
     16  O          0.0520    3.8450   -3.4880 O.2   115  THR115     -0.2714
     17  CB        -0.2560    6.5400   -2.1930 C.3   115  THR115      0.1808
     18  OG1        1.0800    6.8470   -1.7720 O.3   115  THR115     -0.2208
     19  CG2       -1.1890    7.6330   -1.7010 C.3   115  THR115      0.0379
     20  N          0.7750    3.2420   -1.4470 N.am  116  GLY116     -0.1939
     21  CA         1.5590    2.1240   -1.9490 C.3   116  GLY116      0.2014
     22  C          3.0360    2.4280   -2.1750 C.2   116  GLY116      0.2639
     23  O          3.7470    1.6390   -2.8150 O.2   116  GLY116     -0.2714
     24  N          3.5050    3.5630   -1.6520 N.am  117  LYS117     -0.1963
     25  CA         4.9050    3.9620   -1.8220 C.3   117  LYS117      0.1728
     26  C          5.8560    2.9600   -1.1680 C.2   117  LYS117      0.2617
     27  O          6.7660    2.4410   -1.8210 O.2   117  LYS117     -0.2715
     28  CB         5.1420    5.3590   -1.2370 C.3   117  LYS117      0.0311
     29  CG         4.2840    6.4480   -1.8680 C.3   117  LYS117      0.0038
     30  CD         4.6660    7.8370   -1.3600 C.3   117  LYS117      0.0206
     31  CE         4.5530    7.9320    0.1610 C.3   117  LYS117      0.1093
     32  NZ         3.1740    7.6260    0.6470 N.3   117  LYS117     -0.1314
     33  N          5.6350    2.7010    0.1210 N.am  118  THR118     -0.1937
     34  CA         6.4550    1.7670    0.8800 C.3   118  THR118      0.2028
     35  C          6.2460    0.3420    0.3930 C.2   118  THR118      0.2642
     36  O          7.1820   -0.4550    0.3780 O.2   118  THR118     -0.2714
     37  CB         6.1220    1.8280    2.3880 C.3   118  THR118      0.1808
     38  OG1        6.5520    3.0910    2.9170 O.3   118  THR118     -0.2208
     39  CG2        6.8190    0.7060    3.1390 C.3   118  THR118      0.0379
     40  N          5.0140    0.0270    0.0000 N.am  119  ASN119     -0.1971
     41  CA         4.6710   -1.3020   -0.4910 C.3   119  ASN119      0.1688
     42  C          5.5820   -1.6450   -1.6600 C.2   119  ASN119      0.2292
     43  O          6.1390   -2.7400   -1.7320 O.2   119  ASN119     -0.2864
     44  CB         3.2130   -1.3340   -0.9670 C.3   119  ASN119      0.1181
     45  CG         2.6490   -2.7320   -1.0120 C.2   119  ASN119      0.2629
     46  OD1        3.3820   -3.7060   -0.8470 O.2   119  ASN119     -0.2716
     47  ND2        1.3360   -2.8410   -1.2400 N.am  119  ASN119     -0.0877
     48  N          9.6930   -1.1720   -0.6000 N.3   122  GLU122     -0.1245
     49  CA        10.1340   -2.2790    0.2300 C.3   122  GLU122      0.1567
     50  C         10.1310   -3.6090   -0.5070 C.2   122  GLU122      0.2260
     51  O         10.9830   -4.4530   -0.2630 O.2   122  GLU122     -0.2867
     52  CB         9.2750   -2.3950    1.4810 C.3   122  GLU122      0.0388
     53  CG         9.5120   -3.6750    2.2460 C.3   122  GLU122      0.1160
     54  CD         8.6440   -3.7510    3.4680 C.2   122  GLU122      0.3649
     55  OE1        9.0040   -3.1200    4.4840 O.co2 122  GLU122     -0.2457
     56  OE2        7.5930   -4.4250    3.3990 O.co2 122  GLU122     -0.2457
     57  N         -4.8090    3.6970   -1.2660 N.3   225  LEU225     -0.1231
     58  CA        -5.1310    2.3140   -1.5750 C.3   225  LEU225      0.1693
     59  C         -6.0070    1.6970   -0.5000 C.2   225  LEU225      0.2592
     60  O         -5.8950    2.0360    0.6780 O.2   225  LEU225     -0.2718
     61  CB        -3.8510    1.4900   -1.7190 C.3   225  LEU225      0.0284
     62  CG        -2.9200    1.9050   -2.8580 C.3   225  LEU225      0.0019
     63  CD1       -1.7290    0.9560   -2.9150 C.3   225  LEU225      0.0001
     64  CD2       -3.6900    1.8860   -4.1740 C.3   225  LEU225      0.0001
     65  N         -6.8860    0.7940   -0.9160 N.am  226  ASP226     -0.1960
     66  CA        -7.7660    0.1160    0.0180 C.3   226  ASP226      0.1840
     67  C         -6.8960   -0.7280    0.9490 C.2   226  ASP226      0.2622
     68  O         -5.8690   -1.2680    0.5350 O.2   226  ASP226     -0.2715
     69  CB        -8.8290   -0.6870   -0.7330 C.3   226  ASP226      0.1450
     70  CG        -9.6970    0.1830   -1.6210 C.2   226  ASP226      0.3671
     71  OD1       -9.7460    1.4100   -1.3870 O.co2 226  ASP226     -0.2456
     72  OD2      -10.3280   -0.3610   -2.5520 O.co2 226  ASP226     -0.2456
     73  N         -7.3030   -0.8280    2.2080 N.am  227  HIS227     -0.1973
     74  CA        -6.5610   -1.6060    3.1970 C.3   227  HIS227      0.1656
     75  C         -6.4020   -3.0390    2.7000 C.2   227  HIS227      0.2291
     76  O         -5.5620   -3.7900    3.1800 O.2   227  HIS227     -0.2864
     77  CB        -7.3380   -1.6300    4.5150 C.3   227  HIS227      0.0771
     78  CG        -8.4950   -2.5830    4.5050 C.ar  227  HIS227      0.0820
     79  ND1       -8.3660   -3.9120    4.8540 N.ar  227  HIS227     -0.2267
     80  CD2       -9.7820   -2.4210    4.1150 C.ar  227  HIS227      0.1154
     81  CE1       -9.5240   -4.5260    4.6790 C.ar  227  HIS227      0.1986
     82  NE2      -10.3990   -3.6440    4.2300 N.ar  227  HIS227     -0.2212
     83  N         -5.8250   -3.9450   -0.6460 N.3   229  PHE229     -0.1227
     84  CA        -4.9230   -4.0510   -1.7980 C.3   229  PHE229      0.1736
     85  C         -3.9010   -5.1890   -1.7490 C.2   229  PHE229      0.2596
     86  O         -3.7440   -5.9270   -2.7190 O.2   229  PHE229     -0.2718
     87  CB        -4.1810   -2.7300   -2.0060 C.3   229  PHE229      0.0547
     88  CG        -3.5020   -2.6270   -3.3410 C.ar  229  PHE229     -0.0202
     89  CD1       -4.2540   -2.5750   -4.5150 C.ar  229  PHE229     -0.0042
     90  CD2       -2.1180   -2.5820   -3.4300 C.ar  229  PHE229     -0.0042
     91  CE1       -3.6330   -2.4790   -5.7600 C.ar  229  PHE229     -0.0003
     92  CE2       -1.4860   -2.4870   -4.6720 C.ar  229  PHE229     -0.0003
     93  CZ        -2.2450   -2.4350   -5.8360 C.ar  229  PHE229     -0.0000
     94  N         -3.2000   -5.3200   -0.6300 N.am  230  GLY230     -0.1942
     95  CA        -2.2100   -6.3730   -0.5110 C.3   230  GLY230      0.2014
     96  C         -0.7810   -5.8710   -0.6400 C.2   230  GLY230      0.2638
     97  O         -0.5360   -4.7700   -1.1360 O.2   230  GLY230     -0.2714
     98  N          0.1650   -6.6870   -0.1870 N.am  231  LYS231     -0.1977
     99  CA         1.5820   -6.3380   -0.2430 C.3   231  LYS231      0.1596
    100  C          2.1880   -6.7850   -1.5700 C.2   231  LYS231      0.2287
    101  O          1.9370   -7.8950   -2.0180 O.2   231  LYS231     -0.2864
    102  CB         2.3380   -7.0150    0.9110 C.3   231  LYS231      0.0298
    103  CG         3.7360   -6.4610    1.1650 C.3   231  LYS231      0.0038
    104  CD         4.4240   -7.1940    2.3200 C.3   231  LYS231      0.0206
    105  CE         5.6150   -6.4070    2.8840 C.3   231  LYS231      0.1093
    106  NZ         6.4460   -5.6990    1.8590 N.3   231  LYS231     -0.1314
@<TRIPOS>BOND
     1    93    91   ar
     2    93    92   ar
     3    91    89   ar
     4    92    90   ar
     5    89    88   ar
     6    64    62    1
     7    16    15    2
     8    90    88   ar
     9    88    87    1
    10    63    62    1
    11    62    61    1
    12    23    22    2
    13    86    85    2
    14    72    70   ar
    15    15    14    1
    16    15    20   am
    17    17    18    1
    18    17    19    1
    19    17    14    1
    20    22    21    1
    21    22    24   am
    22   101   100    2
    23    87    84    1
    24    21    20    1
    25    29    30    1
    26    29    28    1
    27    25    24    1
    28    25    28    1
    29    25    26    1
    30    27    26    2
    31    84    85    1
    32    84    83    1
    33    85    94   am
    34    43    42    2
    35    61    58    1
    36    42    41    1
    37    14    13    1
    38    70    71   ar
    39    70    69    1
    40    58    57    1
    41    58    59    1
    42   100    99    1
    43    30    31    1
    44    47    45   am
    45    26    33   am
    46    97    96    2
    47    45    44    1
    48    45    46    2
    49    44    41    1
    50    65    59   am
    51    65    66    1
    52    69    66    1
    53    96    95    1
    54    96    98   am
    55    94    95    1
    56    48    49    1
    57    50    51    2
    58    50    49    1
    59    59    60    2
    60    41    40    1
    61    99    98    1
    62    99   102    1
    63    13     8   am
    64    40    35   am
    65    66    67    1
    66     9     8    2
    67    33    34    1
    68    31    32    1
    69    49    52    1
    70    36    35    2
    71    35    34    1
    72    68    67    2
    73     8     7    1
    74    34    37    1
    75   102   103    1
    76    67    73   am
    77   103   104    1
    78    52    53    1
    79   106   105    1
    80     7     6    1
    81     7    10    1
    82     4     3    2
    83    73    74    1
    84    53    54    1
    85   104   105    1
    86    37    38    1
    87    37    39    1
    88     6     3   am
    89     3     2    1
    90    12    10    1
    91    75    76    2
    92    75    74    1
    93     1     2    1
    94    10    11    1
    95    74    77    1
    96     2     5    1
    97    56    54   ar
    98    54    55   ar
    99    80    82   ar
   100    80    78   ar
   101    82    81   ar
   102    78    77    1
   103    78    79   ar
   104    81    79   ar
