@<TRIPOS>MOLECULE
/Users/jeffrey/Documents/Datasets/tough-c1/pocket-lpc-control/2ra5A00-1.pdb
 117 111 0 0 0
SMALL
GASTEIGER

@<TRIPOS>ATOM
      1  N         -3.3480   13.7750    2.7900 N.3     6  ARG6       -0.1245
      2  CA        -3.9020   12.9870    1.6970 C.3     6  ARG6        0.1563
      3  C         -5.4210   13.1030    1.7000 C.2     6  ARG6        0.2260
      4  O         -6.0500   12.9900    2.7490 O.2     6  ARG6       -0.2867
      5  CB        -3.5180   11.5250    1.8530 C.3     6  ARG6        0.0307
      6  CG        -2.0210   11.2790    1.9130 C.3     6  ARG6        0.0489
      7  CD        -1.7390    9.7770    2.1010 C.3     6  ARG6        0.2205
      8  NE        -0.3100    9.4920    2.0910 N.pl3   6  ARG6       -0.0865
      9  CZ         0.1990    8.2610    2.0330 C.cat   6  ARG6        0.5346
     10  NH1       -0.6140    7.1980    1.9840 N.pl3   6  ARG6        0.1354
     11  NH2        1.5220    8.0820    2.0240 N.pl3   6  ARG6        0.1354
     12  N         -0.8780   -7.7220   -3.9540 N.3    41  ARG41      -0.1245
     13  CA        -2.2760   -7.5370   -3.5610 C.3    41  ARG41       0.1563
     14  C         -3.1020   -6.8730   -4.6610 C.2    41  ARG41       0.2260
     15  O         -2.6270   -5.9810   -5.3670 O.2    41  ARG41      -0.2867
     16  CB        -2.4330   -6.6690   -2.3090 C.3    41  ARG41       0.0307
     17  CG        -1.8200   -7.1800   -1.0410 C.3    41  ARG41       0.0489
     18  CD        -0.7740   -6.1720   -0.5770 C.3    41  ARG41       0.2205
     19  NE        -1.2390   -5.2580    0.4590 N.pl3  41  ARG41      -0.0865
     20  CZ        -0.6550   -4.0970    0.7340 C.cat  41  ARG41       0.5346
     21  NH1       -1.1300   -3.3130    1.6960 N.pl3  41  ARG41       0.1354
     22  NH2        0.3990   -3.7130    0.0280 N.pl3  41  ARG41       0.1354
     23  N         -6.4330   -4.5260   -4.8100 N.3    43  ARG43      -0.1245
     24  CA        -7.3650   -3.7280   -4.0160 C.3    43  ARG43       0.1563
     25  C         -8.6260   -3.5040   -4.8180 C.2    43  ARG43       0.2260
     26  O         -8.5750   -3.0580   -5.9670 O.2    43  ARG43      -0.2867
     27  CB        -6.7630   -2.3760   -3.6630 C.3    43  ARG43       0.0307
     28  CG        -5.7000   -2.4620   -2.6170 C.3    43  ARG43       0.0489
     29  CD        -6.2450   -2.2470   -1.2150 C.3    43  ARG43       0.2205
     30  NE        -5.2680   -1.4690   -0.4540 N.pl3  43  ARG43      -0.0865
     31  CZ        -4.6730   -1.8740    0.6610 C.cat  43  ARG43       0.5346
     32  NH1       -4.9820   -3.0510    1.1970 N.pl3  43  ARG43       0.1354
     33  NH2       -3.7820   -1.0860    1.2540 N.pl3  43  ARG43       0.1354
     34  N         -0.9510   -3.9800   -6.2860 N.3    52  LEU52      -0.1245
     35  CA         0.1430   -3.6000   -5.3940 C.3    52  LEU52       0.1561
     36  C          1.2150   -4.6840   -5.2130 C.2    52  LEU52       0.2260
     37  O          0.9630   -5.6830   -4.5470 O.2    52  LEU52      -0.2867
     38  CB        -0.4160   -3.2430   -4.0110 C.3    52  LEU52       0.0270
     39  CG        -1.6190   -2.2990   -3.8920 C.3    52  LEU52       0.0019
     40  CD1       -1.8950   -1.9570   -2.4360 C.3    52  LEU52       0.0001
     41  CD2       -1.4160   -1.0400   -4.7320 C.3    52  LEU52       0.0001
     42  N          4.7740   -5.4520   -3.4120 N.3    54  ASN54      -0.1240
     43  CA         5.7580   -4.9750   -2.4340 C.3    54  ASN54       0.1653
     44  C          6.9110   -5.9300   -2.1200 C.2    54  ASN54       0.2266
     45  O          6.7690   -7.1530   -2.1700 O.2    54  ASN54      -0.2867
     46  CB         5.0800   -4.4990   -1.1330 C.3    54  ASN54       0.1155
     47  CG         4.0490   -3.3990   -1.3810 C.2    54  ASN54       0.2627
     48  OD1        4.3380   -2.2090   -1.2600 O.2    54  ASN54      -0.2716
     49  ND2        2.8580   -3.7960   -1.7620 N.am   54  ASN54      -0.0877
     50  N         -3.8340   -2.6220    6.4170 N.3    72  GLY72      -0.1210
     51  CA        -2.7840   -2.1020    5.5570 C.3    72  GLY72       0.1956
     52  C         -1.3780   -2.5550    5.9210 C.2    72  GLY72       0.2612
     53  O         -1.0790   -2.9290    7.0580 O.2    72  GLY72      -0.2717
     54  N         -0.4940   -2.5030    4.9380 N.am   73  LEU73      -0.1965
     55  CA         0.8700   -2.9870    5.1150 C.3    73  LEU73       0.1728
     56  C          1.6560   -2.1370    6.1080 C.2    73  LEU73       0.2616
     57  O          2.4630   -2.6660    6.8720 O.2    73  LEU73      -0.2715
     58  CB         1.5850   -3.0510    3.7580 C.3    73  LEU73       0.0311
     59  CG         3.0660   -3.4310    3.7470 C.3    73  LEU73       0.0022
     60  CD1        3.2640   -4.8050    4.3730 C.3    73  LEU73       0.0001
     61  CD2        3.6420   -3.3840    2.3320 C.3    73  LEU73       0.0001
     62  N          1.4140   -0.8250    6.1070 N.am   74  TYR74      -0.1960
     63  CA         2.0870    0.0730    7.0500 C.3    74  TYR74       0.1771
     64  C          1.7060   -0.2120    8.4980 C.2    74  TYR74       0.2619
     65  O          2.5650   -0.1970    9.3820 O.2    74  TYR74      -0.2715
     66  CB         1.7820    1.5330    6.7250 C.3    74  TYR74       0.0574
     67  CG         2.6930    2.1280    5.6920 C.ar   74  TYR74      -0.0198
     68  CD1        3.3950    1.3170    4.7940 C.ar   74  TYR74      -0.0009
     69  CD2        2.8450    3.5050    5.5980 C.ar   74  TYR74      -0.0009
     70  CE1        4.2390    1.8660    3.8460 C.ar   74  TYR74       0.0417
     71  CE2        3.6770    4.0620    4.6590 C.ar   74  TYR74       0.0417
     72  CZ         4.3690    3.2460    3.7840 C.ar   74  TYR74       0.1957
     73  OH         5.1880    3.8410    2.8520 O.3    74  TYR74      -0.2866
     74  N          0.4140   -0.4490    8.7360 N.am   75  ARG75      -0.1977
     75  CA        -0.0900   -0.7370   10.0770 C.3    75  ARG75       0.1597
     76  C          0.5620   -2.0010   10.6040 C.2    75  ARG75       0.2287
     77  O          1.0170   -2.0440   11.7460 O.2    75  ARG75      -0.2864
     78  CB        -1.6210   -0.8780   10.0780 C.3    75  ARG75       0.0334
     79  CG        -2.2230   -1.3410   11.4170 C.3    75  ARG75       0.0492
     80  CD        -3.7540   -1.4340   11.3470 C.3    75  ARG75       0.2205
     81  NE        -4.3320   -2.3620   12.3270 N.pl3  75  ARG75      -0.0865
     82  CZ        -5.2400   -2.0370   13.2490 C.cat  75  ARG75       0.5346
     83  NH1       -5.6980   -2.9650   14.0800 N.pl3  75  ARG75       0.1354
     84  NH2       -5.7020   -0.7950   13.3430 N.pl3  75  ARG75       0.1354
     85  N          7.4910    3.5240   -4.6380 N.3   115  ARG115     -0.1245
     86  CA         7.7750    4.1090   -3.3450 C.3   115  ARG115      0.1563
     87  C          8.8350    3.3050   -2.5880 C.2   115  ARG115      0.2260
     88  O          8.8070    2.0720   -2.6010 O.2   115  ARG115     -0.2867
     89  CB         6.4710    4.1860   -2.5470 C.3   115  ARG115      0.0307
     90  CG         6.6100    4.5390   -1.0840 C.3   115  ARG115      0.0489
     91  CD         5.3110    4.2600   -0.3500 C.3   115  ARG115      0.2205
     92  NE         4.9330    2.8380   -0.3320 N.pl3 115  ARG115     -0.0865
     93  CZ         3.6990    2.3950   -0.0820 C.cat 115  ARG115      0.5346
     94  NH1        3.4340    1.0900   -0.0780 N.pl3 115  ARG115      0.1354
     95  NH2        2.7180    3.2590    0.1620 N.pl3 115  ARG115      0.1354
     96  N          3.4470   -0.0430   -7.8770 N.3   130  HIS130     -0.1241
     97  CA         1.9950   -0.1340   -7.9530 C.3   130  HIS130      0.1621
     98  C          1.4170    0.3930   -9.2530 C.2   130  HIS130      0.2264
     99  O          1.9860    1.2800   -9.8830 O.2   130  HIS130     -0.2867
    100  CB         1.3750    0.6510   -6.8020 C.3   130  HIS130      0.0745
    101  CG         1.9500    0.3310   -5.4670 C.ar  130  HIS130      0.0817
    102  ND1        2.3360    1.2960   -4.5710 N.ar  130  HIS130     -0.2268
    103  CD2        2.2070   -0.8620   -4.8620 C.ar  130  HIS130      0.1154
    104  CE1        2.7970    0.7310   -3.4710 C.ar  130  HIS130      0.1986
    105  NE2        2.7210   -0.5890   -3.6300 N.ar  130  HIS130     -0.2212
    106  N         -2.5560    1.6240  -10.9220 N.3   132  TYR132     -0.1241
    107  CA        -3.9170    2.0250  -10.5870 C.3   132  TYR132      0.1605
    108  C         -4.7300    2.2790  -11.8420 C.2   132  TYR132      0.2264
    109  O         -4.2480    2.9480  -12.7680 O.2   132  TYR132     -0.2867
    110  CB        -3.9040    3.3110   -9.7720 C.3   132  TYR132      0.0534
    111  CG        -2.9770    3.2930   -8.5910 C.ar  132  TYR132     -0.0201
    112  CD1       -1.6350    3.6110   -8.7360 C.ar  132  TYR132     -0.0009
    113  CD2       -3.4470    2.9690   -7.3210 C.ar  132  TYR132     -0.0009
    114  CE1       -0.7810    3.5970   -7.6460 C.ar  132  TYR132      0.0417
    115  CE2       -2.6050    2.9530   -6.2320 C.ar  132  TYR132      0.0417
    116  CZ        -1.2700    3.2660   -6.3930 C.ar  132  TYR132      0.1957
    117  OH        -0.4270    3.2510   -5.2940 O.3   132  TYR132     -0.2866
@<TRIPOS>BOND
     1   109   108    2
     2   108   107    1
     3   106   107    1
     4   107   110    1
     5    99    98    2
     6   110   111    1
     7    98    97    1
     8   112   111   ar
     9   112   114   ar
    10   111   113   ar
    11    97    96    1
    12    97   100    1
    13   114   116   ar
    14   113   115   ar
    15   100   101    1
    16   116   115   ar
    17   116   117    1
    18    34    35    1
    19    26    25    2
    20   101   103   ar
    21   101   102   ar
    22    35    36    1
    23    35    38    1
    24    15    14    2
    25    36    37    2
    26   103   105   ar
    27    25    24    1
    28    23    24    1
    29    41    39    1
    30    14    13    1
    31    85    86    1
    32   102   104   ar
    33    24    27    1
    34    38    39    1
    35    12    13    1
    36    39    40    1
    37    27    28    1
    38   105   104   ar
    39    13    16    1
    40    42    43    1
    41    86    87    1
    42    86    89    1
    43    28    29    1
    44    88    87    2
    45    89    90    1
    46    43    44    1
    47    43    46    1
    48    16    17    1
    49    45    44    2
    50    49    47   am
    51    47    48    2
    52    47    46    1
    53    29    30    1
    54    90    91    1
    55    17    18    1
    56    18    19    1
    57    30    31    2
    58    91    92    1
    59    92    93    2
    60    93    94    1
    61    93    95    1
    62    22    20    1
    63    19    20    2
    64    31    32    1
    65    31    33    1
    66    20    21    1
    67     2     3    1
    68     2     5    1
    69     2     1    1
    70     3     4    2
    71     5     6    1
    72     6     7    1
    73    10     9    1
    74    11     9    1
    75     9     8    2
    76     8     7    1
    77    61    59    1
    78    73    72    1
    79    59    58    1
    80    59    60    1
    81    58    55    1
    82    72    70   ar
    83    72    71   ar
    84    70    68   ar
    85    71    69   ar
    86    68    67   ar
    87    54    55    1
    88    54    52   am
    89    55    56    1
    90    51    52    1
    91    51    50    1
    92    69    67   ar
    93    67    66    1
    94    52    53    2
    95    62    56   am
    96    62    63    1
    97    56    57    2
    98    66    63    1
    99    63    64    1
   100    64    74   am
   101    64    65    2
   102    74    75    1
   103    75    78    1
   104    75    76    1
   105    78    79    1
   106    76    77    2
   107    80    79    1
   108    80    81    1
   109    81    82    2
   110    82    84    1
   111    82    83    1
