@<TRIPOS>MOLECULE
/Users/jeffrey/Documents/Datasets/tough-c1/pocket-lpc-control/2uw1A00-1.pdb
 135 129 0 0 0
SMALL
GASTEIGER

@<TRIPOS>ATOM
      1  N          2.2470   -5.1500    8.2470 N.3    68  THR68      -0.1203
      2  CA         1.6280   -4.2880    7.2380 C.3    68  THR68       0.1994
      3  C          1.8700   -4.8400    5.8260 C.2    68  THR68       0.2617
      4  O          0.9220   -4.9780    5.0520 O.2    68  THR68      -0.2717
      5  CB         2.1160   -2.8100    7.3530 C.3    68  THR68       0.1784
      6  OG1        1.8310   -2.3130    8.6640 O.3    68  THR68      -0.2211
      7  CG2        1.4250   -1.9080    6.3140 C.3    68  THR68       0.0376
      8  N          3.1240   -5.1860    5.5180 N.am   69  GLU69      -0.1979
      9  CA         3.4960   -5.7270    4.2040 C.3    69  GLU69       0.1602
     10  C          2.7940   -7.0480    3.8940 C.2    69  GLU69       0.2287
     11  O          2.3810   -7.2810    2.7510 O.2    69  GLU69      -0.2864
     12  CB         5.0140   -5.9120    4.0920 C.3    69  GLU69       0.0415
     13  CG         5.8130   -4.6170    4.0500 C.3    69  GLU69       0.1163
     14  CD         5.7220   -3.8930    2.7180 C.2    69  GLU69       0.3649
     15  OE1        5.0760   -4.4050    1.7710 O.co2  69  GLU69      -0.2457
     16  OE2        6.3080   -2.8020    2.6110 O.co2  69  GLU69      -0.2457
     17  N         -4.6080   -5.0200   -0.0500 N.3    75  TYR75      -0.1241
     18  CA        -4.2630   -3.8160   -0.8120 C.3    75  TYR75       0.1605
     19  C         -4.5560   -3.9860   -2.2930 C.2    75  TYR75       0.2264
     20  O         -4.9830   -3.0430   -2.9580 O.2    75  TYR75      -0.2867
     21  CB        -2.7890   -3.4330   -0.5930 C.3    75  TYR75       0.0534
     22  CG        -2.3590   -3.4800    0.8600 C.ar   75  TYR75      -0.0201
     23  CD1       -3.2370   -3.1030    1.8720 C.ar   75  TYR75      -0.0009
     24  CD2       -1.0780   -3.9000    1.2220 C.ar   75  TYR75      -0.0009
     25  CE1       -2.8620   -3.1520    3.2060 C.ar   75  TYR75       0.0417
     26  CE2       -0.6880   -3.9370    2.5580 C.ar   75  TYR75       0.0417
     27  CZ        -1.5890   -3.5640    3.5470 C.ar   75  TYR75       0.1957
     28  OH        -1.2410   -3.6030    4.8790 O.3    75  TYR75      -0.2866
     29  N         -8.1810   -3.4340   -2.6720 N.3    78  MET78      -0.1230
     30  CA        -8.4850   -1.9970   -2.6790 C.3    78  MET78       0.1702
     31  C         -8.3400   -1.4040   -4.0820 C.2    78  MET78       0.2592
     32  O         -9.2630   -0.7530   -4.5880 O.2    78  MET78      -0.2718
     33  CB        -7.6180   -1.2290   -1.6660 C.3    78  MET78       0.0401
     34  CG        -7.9470    0.2770   -1.5430 C.3    78  MET78       0.0596
     35  SD        -7.2140    1.3310   -2.8400 S.3    78  MET78      -0.1393
     36  CE        -5.5340    1.5010   -2.2280 C.3    78  MET78       0.0692
     37  N         -7.1910   -1.6360   -4.7160 N.am   79  LEU79      -0.1980
     38  CA        -6.9720   -1.1210   -6.0700 C.3    79  LEU79       0.1596
     39  C         -8.0390   -1.6670   -7.0090 C.2    79  LEU79       0.2287
     40  O         -8.5840   -0.9350   -7.8310 O.2    79  LEU79      -0.2864
     41  CB        -5.5690   -1.4620   -6.5770 C.3    79  LEU79       0.0297
     42  CG        -4.4230   -0.7750   -5.8300 C.3    79  LEU79       0.0022
     43  CD1       -3.1330   -1.5040   -6.1360 C.3    79  LEU79       0.0001
     44  CD2       -4.3240    0.7030   -6.2140 C.3    79  LEU79       0.0001
     45  N          2.5820   -4.6080   -9.7680 N.3   103  TRP103     -0.1241
     46  CA         2.8410   -3.9250   -8.4930 C.3   103  TRP103      0.1605
     47  C          2.6760   -4.9030   -7.3270 C.2   103  TRP103      0.2264
     48  O          3.5620   -5.0040   -6.4610 O.2   103  TRP103     -0.2867
     49  CB         1.9160   -2.6990   -8.3270 C.3   103  TRP103      0.0550
     50  CG         1.9860   -2.0620   -6.9660 C.ar  103  TRP103      0.0003
     51  CD1        2.8630   -1.1030   -6.5620 C.ar  103  TRP103      0.0946
     52  CD2        1.1680   -2.3640   -5.8240 C.ar  103  TRP103      0.0152
     53  NE1        2.6350   -0.7740   -5.2520 N.ar  103  TRP103     -0.2442
     54  CE2        1.6000   -1.5330   -4.7730 C.ar  103  TRP103      0.0810
     55  CE3        0.1040   -3.2460   -5.5950 C.ar  103  TRP103      0.0012
     56  CZ2        1.0180   -1.5640   -3.5000 C.ar  103  TRP103      0.0191
     57  CZ3       -0.4770   -3.2830   -4.3340 C.ar  103  TRP103      0.0001
     58  CH2       -0.0170   -2.4420   -3.2990 C.ar  103  TRP103      0.0015
     59  N          5.3890   -6.1930   -4.6110 N.3   107  GLU107     -0.1245
     60  CA         5.1040   -6.0200   -3.1860 C.3   107  GLU107      0.1567
     61  C          5.2330   -7.2940   -2.3740 C.2   107  GLU107      0.2260
     62  O          5.5940   -7.2610   -1.1850 O.2   107  GLU107     -0.2867
     63  CB         3.6760   -5.5090   -2.9960 C.3   107  GLU107      0.0388
     64  CG         3.5170   -4.0630   -3.3230 C.3   107  GLU107      0.1160
     65  CD         4.2660   -3.1780   -2.3570 C.2   107  GLU107      0.3649
     66  OE1        4.4160   -3.5650   -1.1750 O.co2 107  GLU107     -0.2457
     67  OE2        4.7050   -2.1020   -2.7970 O.co2 107  GLU107     -0.2457
     68  N         -9.2230   -3.3230    6.0130 N.3   141  MET141     -0.1245
     69  CA        -8.9110   -1.9260    6.2900 C.3   141  MET141      0.1570
     70  C        -10.0460   -1.0330    5.8090 C.2   141  MET141      0.2261
     71  O        -10.8790   -1.4460    4.9960 O.2   141  MET141     -0.2867
     72  CB        -7.5840   -1.5140    5.6470 C.3   141  MET141      0.0387
     73  CG        -7.6250   -1.3240    4.1310 C.3   141  MET141      0.0595
     74  SD        -6.0210   -0.8640    3.4660 S.3   141  MET141     -0.1393
     75  CE        -5.0500   -2.1470    4.2160 C.3   141  MET141      0.0692
     76  N         -4.3060    8.4210   -2.4940 N.3   155  TYR155     -0.1227
     77  CA        -3.9490    7.6980   -1.2610 C.3   155  TYR155      0.1736
     78  C         -2.6450    6.9030   -1.4090 C.2   155  TYR155      0.2596
     79  O         -1.7590    6.9670   -0.5420 O.2   155  TYR155     -0.2718
     80  CB        -5.0840    6.7680   -0.8120 C.3   155  TYR155      0.0548
     81  CG        -4.7250    5.9340    0.3930 C.ar  155  TYR155     -0.0200
     82  CD1       -5.0160    6.3770    1.6860 C.ar  155  TYR155     -0.0009
     83  CD2       -4.0670    4.7060    0.2430 C.ar  155  TYR155     -0.0009
     84  CE1       -4.6760    5.6070    2.8010 C.ar  155  TYR155      0.0417
     85  CE2       -3.7200    3.9460    1.3410 C.ar  155  TYR155      0.0417
     86  CZ        -4.0190    4.3900    2.6090 C.ar  155  TYR155      0.1957
     87  OH        -3.6590    3.6120    3.6830 O.3   155  TYR155     -0.2866
     88  N         -2.5340    6.1560   -2.5110 N.am  156  THR156     -0.1953
     89  CA        -1.3550    5.3220   -2.7550 C.3   156  THR156      0.1897
     90  C         -0.0740    6.1490   -2.9880 C.2   156  THR156      0.2313
     91  O          1.0090    5.7760   -2.5050 O.2   156  THR156     -0.2863
     92  CB        -1.6190    4.2830   -3.8740 C.3   156  THR156      0.1794
     93  OG1       -2.7800    3.5010   -3.5290 O.3   156  THR156     -0.2208
     94  CG2       -0.4350    3.3330   -4.0160 C.3   156  THR156      0.0378
     95  N          0.8580    7.1820    0.5570 N.3   159  GLN159     -0.1231
     96  CA         1.2330    6.0960    1.4440 C.3   159  GLN159      0.1698
     97  C          2.5040    5.3670    1.0200 C.2   159  GLN159      0.2592
     98  O          3.2630    4.9240    1.8730 O.2   159  GLN159     -0.2718
     99  CB         0.0570    5.1270    1.6330 C.3   159  GLN159      0.0381
    100  CG         0.1670    4.1860    2.8420 C.3   159  GLN159      0.0905
    101  CD         0.7520    4.8420    4.0970 C.2   159  GLN159      0.2608
    102  OE1        0.3920    5.9690    4.4620 O.2   159  GLN159     -0.2717
    103  NE2        1.6660    4.1230    4.7640 N.am  159  GLN159     -0.0878
    104  N          2.7430    5.2510   -0.2840 N.am  160  GLU160     -0.1979
    105  CA         4.0190    4.7010   -0.7630 C.3   160  GLU160      0.1602
    106  C          5.1950    5.6020   -0.4050 C.2   160  GLU160      0.2287
    107  O          6.2970    5.1140   -0.1310 O.2   160  GLU160     -0.2864
    108  CB         3.9970    4.4140   -2.2670 C.3   160  GLU160      0.0415
    109  CG         3.1470    3.1920   -2.6400 C.3   160  GLU160      0.1163
    110  CD         3.8470    1.8740   -2.3550 C.2   160  GLU160      0.3649
    111  OE1        4.6230    1.7990   -1.3740 O.co2 160  GLU160     -0.2457
    112  OE2        3.6320    0.9040   -3.1130 O.co2 160  GLU160     -0.2457
    113  N          5.8730    4.9130    3.3170 N.3   163  THR163     -0.1218
    114  CA         6.6030    3.6740    3.5650 C.3   163  THR163      0.1862
    115  C          8.0560    3.7670    3.0660 C.2   163  THR163      0.2287
    116  O          8.9500    3.1930    3.6890 O.2   163  THR163     -0.2866
    117  CB         5.8210    2.4070    3.0990 C.3   163  THR163      0.1770
    118  OG1        6.5920    1.2260    3.3480 O.3   163  THR163     -0.2211
    119  CG2        5.4570    2.4690    1.6370 C.3   163  THR163      0.0375
    120  N          9.6310    1.2940   -3.2170 N.3   193  GLU193     -0.1245
    121  CA         8.6340    2.2890   -2.8180 C.3   193  GLU193      0.1567
    122  C          8.8460    3.6490   -3.4590 C.2   193  GLU193      0.2260
    123  O          7.8760    4.3340   -3.7840 O.2   193  GLU193     -0.2867
    124  CB         8.5770    2.4070   -1.3030 C.3   193  GLU193      0.0388
    125  CG         7.9720    1.1670   -0.6890 C.3   193  GLU193      0.1160
    126  CD         8.4540    0.8800    0.7100 C.2   193  GLU193      0.3649
    127  OE1        9.4520    1.4920    1.1520 O.co2 193  GLU193     -0.2457
    128  OE2        7.8190    0.0350    1.3710 O.co2 193  GLU193     -0.2457
    129  N         -2.5840    1.6560    6.4640 N.3   230  PRO230     -0.2116
    130  CA        -3.1900    0.4320    5.9430 C.3   230  PRO230      0.1372
    131  C         -3.4820   -0.6100    7.0260 C.2   230  PRO230      0.2244
    132  O         -4.4950   -1.3010    6.9640 O.2   230  PRO230     -0.2868
    133  CB        -2.1220   -0.0960    4.9710 C.3   230  PRO230      0.0268
    134  CG        -1.3400    1.0770    4.5850 C.3   230  PRO230      0.0207
    135  CD        -1.3080    1.9590    5.7940 C.3   230  PRO230      0.0892
@<TRIPOS>BOND
     1    45    46    1
     2    46    49    1
     3    46    47    1
     4    49    50    1
     5    40    39    2
     6    47    48    2
     7    39    38    1
     8    50    51   ar
     9    50    52   ar
    10    41    38    1
    11    41    42    1
    12    51    53   ar
    13    44    42    1
    14    43    42    1
    15    38    37    1
    16    52    55   ar
    17    52    54   ar
    18    55    57   ar
    19    53    54   ar
    20    54    56   ar
    21    37    31   am
    22    59    60    1
    23    32    31    2
    24    57    58   ar
    25    31    30    1
    26    94    92    1
    27    92    93    1
    28    92    89    1
    29   123   122    2
    30    56    58   ar
    31   122   121    1
    32    64    63    1
    33    64    65    1
    34   120   121    1
    35    60    63    1
    36    60    61    1
    37   112   110   ar
    38    90    89    1
    39    90    91    2
    40    20    19    2
    41    35    36    1
    42    35    34    1
    43   121   124    1
    44    67    65   ar
    45    89    88    1
    46    30    29    1
    47    30    33    1
    48   109   110    1
    49   109   108    1
    50    88    78   am
    51    76    77    1
    52    61    62    2
    53    65    66   ar
    54   110   111   ar
    55    19    18    1
    56   108   105    1
    57    33    34    1
    58    78    77    1
    59    78    79    2
    60   124   125    1
    61    77    80    1
    62    80    81    1
    63    18    21    1
    64    18    17    1
    65   105   106    1
    66   105   104    1
    67   125   126    1
    68    21    22    1
    69   106   107    2
    70   104    97   am
    71    83    81   ar
    72    83    85   ar
    73    81    82   ar
    74    95    96    1
    75   126   127   ar
    76   126   128   ar
    77    22    24   ar
    78    22    23   ar
    79    97    96    1
    80    97    98    2
    81    24    26   ar
    82    85    86   ar
    83    96    99    1
    84    99   100    1
    85   119   117    1
    86    82    84   ar
    87    15    14   ar
    88    23    25   ar
    89    26    27   ar
    90    86    84   ar
    91    86    87    1
    92    16    14   ar
    93    14    13    1
    94    11    10    2
    95   100   101    1
    96   115   114    1
    97   115   116    2
    98   117   118    1
    99   117   114    1
   100    25    27   ar
   101   113   114    1
   102    74    73    1
   103    74    75    1
   104    27    28    1
   105    10     9    1
   106    13    12    1
   107    12     9    1
   108   101   102    2
   109   101   103   am
   110    73    72    1
   111     9     8    1
   112   134   133    1
   113   134   135    1
   114   133   130    1
   115    71    70    2
   116     4     3    2
   117     8     3   am
   118    72    69    1
   119   135   129    1
   120    70    69    1
   121     3     2    1
   122   130   129    1
   123   130   131    1
   124    68    69    1
   125     7     5    1
   126   132   131    2
   127     2     5    1
   128     2     1    1
   129     5     6    1
