@<TRIPOS>MOLECULE
tmp/3i5rA00.pdb
 162 162 0 0 0
SMALL
GASTEIGER

@<TRIPOS>ATOM
      1  N         10.9290   18.8860   12.2800 N.3    11  TYR11      -0.1227
      2  CA        11.0110   18.3770   13.6590 C.3    11  TYR11       0.1736
      3  C          9.9810   17.2770   13.8960 C.2    11  TYR11       0.2595
      4  O          8.9530   17.2380   13.2120 O.2    11  TYR11      -0.2718
      5  CB        10.7220   19.5100   14.6620 C.3    11  TYR11       0.0548
      6  CG        11.5000   20.7770   14.4160 C.ar   11  TYR11      -0.0200
      7  CD1       12.7470   20.9820   15.0070 C.ar   11  TYR11      -0.0009
      8  CD2       10.9930   21.7730   13.6020 C.ar   11  TYR11      -0.0009
      9  CE1       13.4660   22.1510   14.7620 C.ar   11  TYR11       0.0417
     10  CE2       11.6990   22.9350   13.3550 C.ar   11  TYR11       0.0417
     11  CZ        12.9300   23.1170   13.9310 C.ar   11  TYR11       0.1957
     12  OH        13.6120   24.2860   13.6740 O.3    11  TYR11      -0.2866
     13  N         10.2340   16.4020   14.8750 N.am   12  ASP12      -0.1960
     14  CA         9.2200   15.4360   15.2950 C.3    12  ASP12       0.1840
     15  C          8.1120   16.1520   16.0810 C.2    12  ASP12       0.2622
     16  O          8.3740   17.0950   16.8450 O.2    12  ASP12      -0.2715
     17  CB         9.8230   14.3540   16.2180 C.3    12  ASP12       0.1450
     18  CG        10.7640   13.3810   15.5080 C.2    12  ASP12       0.3671
     19  OD1       10.8000   13.2870   14.2690 O.co2  12  ASP12      -0.2456
     20  OD2       11.4860   12.6600   16.2310 O.co2  12  ASP12      -0.2456
     21  N          6.8770   15.6870   15.9250 N.am   13  TYR13      -0.1974
     22  CA         5.7400   16.1910   16.6940 C.3    13  TYR13       0.1639
     23  C          4.8840   15.0000   17.0950 C.2    13  TYR13       0.2290
     24  O          4.5090   14.2070   16.2400 O.2    13  TYR13      -0.2864
     25  CB         4.8880   17.1760   15.8590 C.3    13  TYR13       0.0560
     26  CG         3.5770   17.5580   16.5300 C.ar   13  TYR13      -0.0198
     27  CD1        3.5600   18.3430   17.6890 C.ar   13  TYR13      -0.0009
     28  CD2        2.3580   17.1430   16.0110 C.ar   13  TYR13      -0.0009
     29  CE1        2.3710   18.6830   18.3070 C.ar   13  TYR13       0.0417
     30  CE2        1.1580   17.4840   16.6310 C.ar   13  TYR13       0.0417
     31  CZ         1.1770   18.2510   17.7780 C.ar   13  TYR13       0.1957
     32  OH        -0.0050   18.5930   18.3890 O.3    13  TYR13      -0.2866
     33  N         -1.1640   15.6930   19.9300 N.3    16  GLU16      -0.1231
     34  CA        -1.6120   16.1310   21.2510 C.3    16  GLU16       0.1699
     35  C         -3.1340   16.0930   21.3600 C.2    16  GLU16       0.2592
     36  O         -3.6970   16.3100   22.4320 O.2    16  GLU16      -0.2718
     37  CB        -1.0890   17.5450   21.5380 C.3    16  GLU16       0.0402
     38  CG         0.4390   17.5950   21.5380 C.3    16  GLU16       0.1161
     39  CD         0.9260   17.3290   22.9480 C.2    16  GLU16       0.3649
     40  OE1        0.1310   17.1160   23.8950 O.co2  16  GLU16      -0.2457
     41  OE2        2.1470   17.2770   23.1300 O.co2  16  GLU16      -0.2457
     42  N         -3.7880   15.7910   20.2440 N.am   17  ARG17      -0.1980
     43  CA        -5.2340   15.8500   20.1340 C.3    17  ARG17       0.1597
     44  C         -5.6740   14.7970   19.1310 C.2    17  ARG17       0.2287
     45  O         -4.8970   14.4060   18.2620 O.2    17  ARG17      -0.2864
     46  CB        -5.6460   17.2370   19.6480 C.3    17  ARG17       0.0334
     47  CG        -7.0790   17.6090   19.8980 C.3    17  ARG17       0.0492
     48  CD        -7.2540   19.1200   19.8190 C.3    17  ARG17       0.2205
     49  NE        -6.4640   19.8170   20.8330 N.pl3  17  ARG17      -0.0865
     50  CZ        -6.5960   21.1070   21.1300 C.cat  17  ARG17       0.5346
     51  NH1       -7.4890   21.8510   20.4880 N.pl3  17  ARG17       0.1354
     52  NH2       -5.8340   21.6560   22.0680 N.pl3  17  ARG17       0.1354
     53  N         -7.5020   14.8920   16.5400 N.3    19  GLU19      -0.1231
     54  CA        -7.5100   15.3260   15.1480 C.3    19  GLU19       0.1699
     55  C         -6.0920   15.5580   14.5960 C.2    19  GLU19       0.2592
     56  O         -5.9250   15.7620   13.3910 O.2    19  GLU19      -0.2718
     57  CB        -8.3650   16.5970   15.0010 C.3    19  GLU19       0.0402
     58  CG        -8.2530   17.3190   13.6530 C.3    19  GLU19       0.1161
     59  CD        -8.4720   16.4030   12.4520 C.2    19  GLU19       0.3649
     60  OE1       -9.0580   15.3160   12.6280 O.co2  19  GLU19      -0.2457
     61  OE2       -8.0580   16.7720   11.3300 O.co2  19  GLU19      -0.2457
     62  N         -5.0840   15.4980   15.4670 N.am   20  ASP20      -0.1974
     63  CA        -3.7080   15.7800   15.0510 C.3    20  ASP20       0.1709
     64  C         -3.1130   14.5710   14.3520 C.2    20  ASP20       0.2293
     65  O         -3.5900   13.4510   14.5240 O.2    20  ASP20      -0.2864
     66  CB        -2.8140   16.0610   16.2550 C.3    20  ASP20       0.1436
     67  CG        -3.0930   17.3840   16.9280 C.2    20  ASP20       0.3671
     68  OD1       -3.9000   18.1930   16.4350 O.co2  20  ASP20      -0.2456
     69  OD2       -2.4700   17.5980   17.9890 O.co2  20  ASP20      -0.2456
     70  N         -5.0950   32.1780    3.1130 N.3    41  PHE41      -0.1241
     71  CA        -3.6370   32.2180    3.0410 C.3    41  PHE41       0.1605
     72  C         -3.0600   31.7890    1.6870 C.2    41  PHE41       0.2264
     73  O         -1.8690   31.4830    1.5960 O.2    41  PHE41      -0.2867
     74  CB        -3.0320   31.3350    4.1570 C.3    41  PHE41       0.0534
     75  CG        -3.3980   31.7830    5.5490 C.ar   41  PHE41      -0.0203
     76  CD1       -2.9560   32.9990    6.0350 C.ar   41  PHE41      -0.0042
     77  CD2       -4.1510   30.9700    6.3800 C.ar   41  PHE41      -0.0042
     78  CE1       -3.2790   33.4110    7.3270 C.ar   41  PHE41      -0.0003
     79  CE2       -4.4760   31.3800    7.6700 C.ar   41  PHE41      -0.0003
     80  CZ        -4.0390   32.6020    8.1340 C.ar   41  PHE41      -0.0000
     81  N          4.8280   28.8160    9.0690 N.3    50  GLU50      -0.1231
     82  CA         5.0780   29.2220   10.4560 C.3    50  GLU50       0.1699
     83  C          4.2570   30.4610   10.8280 C.2    50  GLU50       0.2592
     84  O          4.0710   30.7420   12.0140 O.2    50  GLU50      -0.2718
     85  CB         6.5820   29.4750   10.6720 C.3    50  GLU50       0.0402
     86  CG         7.1560   30.6870    9.9180 C.3    50  GLU50       0.1161
     87  CD         7.4110   30.4590    8.4310 C.2    50  GLU50       0.3649
     88  OE1        7.3130   29.3130    7.9470 O.co2  50  GLU50      -0.2457
     89  OE2        7.7380   31.4480    7.7380 O.co2  50  GLU50      -0.2457
     90  N          3.7580   31.1890    9.8140 N.am   51  GLU51      -0.1966
     91  CA         2.8880   32.3510   10.0390 C.3    51  GLU51       0.1733
     92  C          1.4070   31.9830    9.9960 C.2    51  GLU51       0.2616
     93  O          0.5640   32.6850   10.5500 O.2    51  GLU51      -0.2715
     94  CB         3.1850   33.4610    9.0120 C.3    51  GLU51       0.0429
     95  CG         4.6130   33.9820    9.1000 C.3    51  GLU51       0.1163
     96  CD         4.8720   35.1580    8.1610 C.2    51  GLU51       0.3649
     97  OE1        3.9040   35.7280    7.6190 O.co2  51  GLU51      -0.2457
     98  OE2        6.0460   35.4900    7.9560 O.co2  51  GLU51      -0.2457
     99  N          1.0810   30.9000    9.2940 N.am   52  ILE52      -0.1963
    100  CA        -0.2960   30.4240    9.2360 C.3    52  ILE52       0.1727
    101  C         -0.7600   29.8410   10.5590 C.2    52  ILE52       0.2617
    102  O         -1.8640   30.1170   11.0000 O.2    52  ILE52      -0.2715
    103  CB        -0.4590   29.3550    8.1350 C.3    52  ILE52       0.0290
    104  CG1       -0.1970   30.0020    6.7740 C.3    52  ILE52       0.0022
    105  CG2       -1.8680   28.7670    8.1700 C.3    52  ILE52       0.0023
    106  CD1       -0.1930   28.9920    5.6250 C.3    52  ILE52       0.0001
    107  N          0.0830   29.0470   11.2040 N.am   53  GLY53      -0.1940
    108  CA        -0.3260   28.4080   12.4410 C.3    53  GLY53       0.2014
    109  C         -0.5830   26.9360   12.1960 C.2    53  GLY53       0.2638
    110  O          0.2010   26.2760   11.5100 O.2    53  GLY53      -0.2714
    111  N         -1.6980   26.4320   12.7220 N.am   54  TRP54      -0.1973
    112  CA        -2.0880   25.0450   12.4920 C.3    54  TRP54       0.1640
    113  C         -2.5000   24.8120   11.0420 C.2    54  TRP54       0.2290
    114  O         -3.2040   25.6440   10.4350 O.2    54  TRP54      -0.2864
    115  CB        -3.2170   24.6400   13.4580 C.3    54  TRP54       0.0576
    116  CG        -2.6780   24.4730   14.8420 C.ar   54  TRP54       0.0006
    117  CD1       -2.5830   25.4350   15.8080 C.ar   54  TRP54       0.0946
    118  CD2       -2.1090   23.2860   15.3930 C.ar   54  TRP54       0.0152
    119  NE1       -1.9960   24.9120   16.9360 N.ar   54  TRP54      -0.2442
    120  CE2       -1.6840   23.5960   16.7050 C.ar   54  TRP54       0.0810
    121  CE3       -1.9140   21.9880   14.9090 C.ar   54  TRP54       0.0012
    122  CZ2       -1.0970   22.6500   17.5420 C.ar   54  TRP54       0.0191
    123  CZ3       -1.3160   21.0480   15.7430 C.ar   54  TRP54       0.0001
    124  CH2       -0.9220   21.3880   17.0490 C.ar   54  TRP54       0.0015
    125  N         -4.3040   17.4290   11.6370 N.3    67  ASP67      -0.1239
    126  CA        -3.7470   18.7370   11.9500 C.3    67  ASP67       0.1674
    127  C         -2.2950   18.6300   12.4150 C.2    67  ASP67       0.2266
    128  O         -1.9120   17.6680   13.1100 O.2    67  ASP67      -0.2867
    129  CB        -4.5670   19.3940   13.0730 C.3    67  ASP67       0.1410
    130  CG        -5.9970   19.7590   12.6520 C.2    67  ASP67       0.3668
    131  OD1       -6.3570   19.6750   11.4550 O.co2  67  ASP67      -0.2456
    132  OD2       -6.7660   20.1490   13.5550 O.co2  67  ASP67      -0.2456
    133  N          1.3870   21.3810   13.3650 N.3    69  PRO69      -0.2102
    134  CA         1.7650   22.7850   13.5600 C.3    69  PRO69       0.1504
    135  C          2.6280   23.2740   12.4160 C.2    69  PRO69       0.2576
    136  O          3.6300   22.6320   12.0770 O.2    69  PRO69      -0.2718
    137  CB         2.5780   22.7610   14.8650 C.3    69  PRO69       0.0282
    138  CG         2.9830   21.3500   15.0650 C.3    69  PRO69       0.0208
    139  CD         2.0940   20.4580   14.2660 C.3    69  PRO69       0.0893
    140  N          2.2450   24.4080   11.8250 N.am   70  GLY70      -0.1943
    141  CA         2.9420   24.9230   10.6540 C.3    70  GLY70       0.2014
    142  C          4.3670   25.3610   10.9270 C.2    70  GLY70       0.2640
    143  O          5.1820   25.4150   10.0260 O.2    70  GLY70      -0.2714
    144  N          4.6790   25.6770   12.1820 N.am   71  THR71      -0.1936
    145  CA         6.0350   26.0790   12.5410 C.3    71  THR71       0.2028
    146  C          7.0110   24.8840   12.4840 C.2    71  THR71       0.2642
    147  O          8.2330   25.0740   12.5190 O.2    71  THR71      -0.2714
    148  CB         6.0760   26.6460   13.9800 C.3    71  THR71       0.1808
    149  OG1        5.3520   25.7680   14.8560 O.3    71  THR71      -0.2208
    150  CG2        5.4520   28.0370   14.0330 C.3    71  THR71       0.0379
    151  N          6.4740   23.6630   12.3890 N.am   72  TYR72      -0.1973
    152  CA         7.3280   22.4650   12.4050 C.3    72  TYR72       0.1639
    153  C          7.7070   22.0330   11.0040 C.2    72  TYR72       0.2290
    154  O          8.4060   21.0270   10.8380 O.2    72  TYR72      -0.2864
    155  CB         6.6120   21.2830   13.0800 C.3    72  TYR72       0.0560
    156  CG         6.6670   21.2780   14.5870 C.ar   72  TYR72      -0.0198
    157  CD1        6.3700   22.4220   15.3270 C.ar   72  TYR72      -0.0009
    158  CD2        6.9790   20.1140   15.2660 C.ar   72  TYR72      -0.0009
    159  CE1        6.4250   22.3940   16.7330 C.ar   72  TYR72       0.0417
    160  CE2        7.0190   20.0700   16.6530 C.ar   72  TYR72       0.0417
    161  CZ         6.7350   21.2070   17.3740 C.ar   72  TYR72       0.1957
    162  OH         6.7980   21.1220   18.7510 O.3    72  TYR72      -0.2866
@<TRIPOS>BOND
     1    73    72    2
     2    72    71    1
     3    71    70    1
     4    71    74    1
     5    74    75    1
     6    75    76   ar
     7    75    77   ar
     8   106   104    1
     9    76    78   ar
    10    77    79   ar
    11   104   103    1
    12    78    80   ar
    13    97    96   ar
    14    79    80   ar
    15    89    87   ar
    16    88    87   ar
    17    98    96   ar
    18   103   105    1
    19   103   100    1
    20    96    95    1
    21    87    86    1
    22    94    95    1
    23    94    91    1
    24    81    82    1
    25   100    99    1
    26   100   101    1
    27    99    92   am
    28    90    91    1
    29    90    83   am
    30    86    85    1
    31    92    91    1
    32    92    93    2
    33   143   142    2
    34   114   113    2
    35    82    85    1
    36    82    83    1
    37   101   102    2
    38   101   107   am
    39   141   142    1
    40   141   140    1
    41    83    84    2
    42   154   153    2
    43   142   144   am
    44   153   152    1
    45   113   112    1
    46   107   108    1
    47    61    59   ar
    48   131   130   ar
    49   110   109    2
    50   125   126    1
    51   140   135   am
    52   126   127    1
    53   126   129    1
    54   136   135    2
    55   144   145    1
    56   109   108    1
    57   109   111   am
    58     1     2    1
    59   151   152    1
    60   151   146   am
    61   152   155    1
    62   127   128    2
    63   135   134    1
    64    59    60   ar
    65    59    58    1
    66   146   147    2
    67   146   145    1
    68   112   111    1
    69   112   115    1
    70   145   148    1
    71   130   129    1
    72   130   132   ar
    73   155   156    1
    74     4     3    2
    75    10     8   ar
    76    10    11   ar
    77   133   134    1
    78   133   139    1
    79    56    55    2
    80   115   116    1
    81   134   137    1
    82     8     6   ar
    83    58    57    1
    84     2     3    1
    85     2     5    1
    86    12    11    1
    87     3    13   am
    88    11     9   ar
    89   148   150    1
    90   148   149    1
    91   139   138    1
    92    19    18   ar
    93    64    65    2
    94    64    63    1
    95     6     5    1
    96     6     7   ar
    97   156   158   ar
    98   156   157   ar
    99    55    54    1
   100    55    62   am
   101     9     7   ar
   102   116   118   ar
   103   116   117   ar
   104   137   138    1
   105    13    14    1
   106   121   118   ar
   107   121   123   ar
   108    57    54    1
   109    63    62    1
   110    63    66    1
   111    54    53    1
   112   158   160   ar
   113    14    15    1
   114    14    17    1
   115   157   159   ar
   116   118   120   ar
   117    18    17    1
   118    18    20   ar
   119   123   124   ar
   120   117   119   ar
   121    25    26    1
   122    25    22    1
   123    21    15   am
   124    21    22    1
   125    28    26   ar
   126    28    30   ar
   127    15    16    2
   128    24    23    2
   129    66    67    1
   130    68    67   ar
   131    26    27   ar
   132    30    31   ar
   133   160   161   ar
   134    22    23    1
   135   120   119   ar
   136   120   122   ar
   137   159   161   ar
   138    67    69   ar
   139   124   122   ar
   140   161   162    1
   141    27    29   ar
   142    31    29   ar
   143    31    32    1
   144    45    44    2
   145    44    43    1
   146    46    47    1
   147    46    43    1
   148    48    47    1
   149    48    49    1
   150    33    34    1
   151    43    42    1
   152    42    35   am
   153    51    50    1
   154    49    50    2
   155    50    52    1
   156    34    35    1
   157    34    37    1
   158    35    36    2
   159    38    37    1
   160    38    39    1
   161    39    41   ar
   162    39    40   ar
