@<TRIPOS>MOLECULE
/Users/jeffrey/Documents/Datasets/tough-c1/pocket-lpc-nucleotide/3j9lG00-1.pdb
 161 156 0 0 0
SMALL
GASTEIGER

@<TRIPOS>ATOM
      1  N         -8.4700    1.7160    5.2400 N.3   114  TYR114     -0.1227
      2  CA        -8.1790    1.5590    3.8340 C.3   114  TYR114      0.1736
      3  C         -7.5420    0.2050    3.5410 C.2   114  TYR114      0.2595
      4  O         -7.3430   -0.1370    2.3770 O.2   114  TYR114     -0.2718
      5  CB        -7.2990    2.7240    3.3940 C.3   114  TYR114      0.0548
      6  CG        -7.9670    4.0460    3.6780 C.ar  114  TYR114     -0.0200
      7  CD1       -9.2920    4.2380    3.3460 C.ar  114  TYR114     -0.0009
      8  CD2       -7.3050    5.0680    4.3480 C.ar  114  TYR114     -0.0009
      9  CE1       -9.9430    5.4230    3.6380 C.ar  114  TYR114      0.0417
     10  CE2       -7.9460    6.2710    4.6470 C.ar  114  TYR114      0.0417
     11  CZ        -9.2680    6.4370    4.2870 C.ar  114  TYR114      0.1957
     12  OH        -9.9030    7.6200    4.5850 O.3   114  TYR114     -0.2866
     13  N         -7.0200   -0.5010    4.5220 N.am  115  ASN115     -0.1960
     14  CA        -6.2060   -1.6240    4.1080 C.3   115  ASN115      0.1819
     15  C         -7.1080   -2.5730    3.4070 C.2   115  ASN115      0.2621
     16  O         -8.1980   -2.8110    3.8820 O.2   115  ASN115     -0.2715
     17  CB        -5.5670   -2.3290    5.2860 C.3   115  ASN115      0.1195
     18  CG        -4.8640   -3.6050    4.8740 C.2   115  ASN115      0.2630
     19  OD1       -4.6510   -4.5040    5.6820 O.2   115  ASN115     -0.2716
     20  ND2       -4.4950   -3.6860    3.6060 N.am  115  ASN115     -0.0877
     21  N         -6.6200   -3.1910    2.3350 N.am  116  VAL116     -0.1977
     22  CA        -7.2680   -4.3670    1.7520 C.3   116  VAL116      0.1596
     23  C         -6.3130   -5.5290    1.6210 C.2   116  VAL116      0.2287
     24  O         -5.2200   -5.3670    1.1050 O.2   116  VAL116     -0.2864
     25  CB        -7.8260   -4.0720    0.3800 C.3   116  VAL116      0.0276
     26  CG1       -8.5070   -5.3090   -0.1830 C.3   116  VAL116      0.0022
     27  CG2       -8.8060   -2.9260    0.4980 C.3   116  VAL116      0.0022
     28  N         -4.2630   -8.5590    0.5070 N.3   118  ARG118     -0.1245
     29  CA        -3.8970   -9.2210   -0.7260 C.3   118  ARG118      0.1563
     30  C         -3.5160  -10.6330   -0.4200 C.2   118  ARG118      0.2260
     31  O         -2.5120  -10.8930    0.2100 O.2   118  ARG118     -0.2867
     32  CB        -2.7170   -8.5350   -1.3710 C.3   118  ARG118      0.0307
     33  CG        -2.8070   -7.0410   -1.3020 C.3   118  ARG118      0.0489
     34  CD        -1.6450   -6.5030   -0.5160 C.3   118  ARG118      0.2205
     35  NE        -0.6660   -5.8690   -1.3790 N.pl3 118  ARG118     -0.0865
     36  CZ         0.0560   -6.5140   -2.2680 C.cat 118  ARG118      0.5346
     37  NH1       -0.1040   -7.8070   -2.4110 N.pl3 118  ARG118      0.1354
     38  NH2        0.9250   -5.8600   -3.0080 N.pl3 118  ARG118      0.1354
     39  N          8.6240    1.1680   -4.8150 N.3   144  LEU144     -0.1231
     40  CA         8.1660    2.0080   -3.7380 C.3   144  LEU144      0.1693
     41  C          6.6590    1.9980   -3.7800 C.2   144  LEU144      0.2593
     42  O          6.0850    1.8050   -4.8220 O.2   144  LEU144     -0.2718
     43  CB         8.6920    3.4260   -3.8920 C.3   144  LEU144      0.0284
     44  CG         7.9370    4.2980   -4.8790 C.3   144  LEU144      0.0019
     45  CD1        8.6830    5.5900   -5.1540 C.3   144  LEU144      0.0001
     46  CD2        7.7410    3.4850   -6.1440 C.3   144  LEU144      0.0001
     47  N          6.0170    2.1680   -2.6380 N.am  145  GLY145     -0.1942
     48  CA         4.5720    2.1180   -2.6040 C.3   145  GLY145      0.2014
     49  C          4.0130    0.8060   -3.0860 C.2   145  GLY145      0.2640
     50  O          3.0720    0.7820   -3.8600 O.2   145  GLY145     -0.2714
     51  N          4.7150   -0.2540   -2.7740 N.am  146  SER146     -0.1935
     52  CA         4.1360   -1.5590   -2.8940 C.3   146  SER146      0.2055
     53  C          3.5170   -1.9260   -1.5450 C.2   146  SER146      0.2644
     54  O          3.1370   -3.0620   -1.3260 O.2   146  SER146     -0.2714
     55  CB         5.1620   -2.5830   -3.3200 C.3   146  SER146      0.2130
     56  OG         4.6920   -3.8720   -3.0120 O.3   146  SER146     -0.2179
     57  N          3.4560   -0.9330   -0.6760 N.am  147  GLY147     -0.1939
     58  CA         2.7320   -1.1000    0.5430 C.3   147  GLY147      0.2014
     59  C          3.2540   -2.3830    1.1020 C.2   147  GLY147      0.2639
     60  O          2.4700   -3.2850    1.3550 O.2   147  GLY147     -0.2714
     61  N          4.5690   -2.5080    1.2160 N.am  148  LYS148     -0.1963
     62  CA         5.0970   -3.7010    1.8230 C.3   148  LYS148      0.1728
     63  C          4.5770   -3.7350    3.2400 C.2   148  LYS148      0.2617
     64  O          4.0620   -4.7460    3.7110 O.2   148  LYS148     -0.2715
     65  CB         6.6130   -3.6710    1.8750 C.3   148  LYS148      0.0311
     66  CG         7.2960   -2.4480    1.3050 C.3   148  LYS148      0.0038
     67  CD         8.7300   -2.8070    0.9370 C.3   148  LYS148      0.0206
     68  CE         9.2030   -1.8750   -0.1620 C.3   148  LYS148      0.1093
     69  NZ         9.2000   -0.4490    0.2760 N.3   148  LYS148     -0.1314
     70  N          4.6370   -2.5900    3.8940 N.am  149  THR149     -0.1937
     71  CA         4.4570   -2.5510    5.3110 C.3   149  THR149      0.2028
     72  C          3.0930   -3.0970    5.6200 C.2   149  THR149      0.2642
     73  O          2.9220   -4.0710    6.3450 O.2   149  THR149     -0.2714
     74  CB         4.3400   -1.0800    5.6630 C.3   149  THR149      0.1808
     75  OG1        3.9350   -0.3930    4.4840 O.3   149  THR149     -0.2208
     76  CG2        5.6490   -0.5130    6.0760 C.3   149  THR149      0.0379
     77  N          2.1390   -2.5410    4.9200 N.am  150  TRP150     -0.1973
     78  CA         0.7280   -2.8760    5.0490 C.3   150  TRP150      0.1640
     79  C          0.4800   -4.3760    4.9850 C.2   150  TRP150      0.2290
     80  O         -0.4300   -4.8780    5.6340 O.2   150  TRP150     -0.2864
     81  CB        -0.0910   -2.1640    3.9700 C.3   150  TRP150      0.0576
     82  CG        -0.3410   -0.7460    4.3010 C.ar  150  TRP150      0.0006
     83  CD1        0.5910    0.1830    4.6120 C.ar  150  TRP150      0.0946
     84  CD2       -1.6180   -0.1030    4.3520 C.ar  150  TRP150      0.0152
     85  NE1       -0.0190    1.3920    4.8560 N.ar  150  TRP150     -0.2442
     86  CE2       -1.3620    1.2550    4.7100 C.ar  150  TRP150      0.0810
     87  CE3       -2.9280   -0.4950    4.1300 C.ar  150  TRP150      0.0012
     88  CZ2       -2.3960    2.1830    4.8550 C.ar  150  TRP150      0.0191
     89  CZ3       -3.9430    0.4290    4.2740 C.ar  150  TRP150      0.0001
     90  CH2       -3.6690    1.7570    4.6310 C.ar  150  TRP150      0.0015
     91  N         11.2410    0.1660    5.6470 N.3   237  ASN237     -0.1240
     92  CA        12.0210    1.0970    4.8210 C.3   237  ASN237      0.1653
     93  C         13.5030    1.0240    4.9820 C.2   237  ASN237      0.2266
     94  O         14.2800    1.8250    4.4310 O.2   237  ASN237     -0.2867
     95  CB        11.5530    2.5000    5.0890 C.3   237  ASN237      0.1155
     96  CG        10.0640    2.5990    5.0710 C.2   237  ASN237      0.2627
     97  OD1        9.3790    1.5960    5.0760 O.2   237  ASN237     -0.2716
     98  ND2        9.5540    3.8120    5.0430 N.am  237  ASN237     -0.0877
     99  N         13.5930   -1.6690    0.6290 N.3   258  ARG258     -0.1245
    100  CA        13.0400   -0.6620   -0.2750 C.3   258  ARG258      0.1563
    101  C         13.8990   -0.5740   -1.5290 C.2   258  ARG258      0.2260
    102  O         13.4030   -0.3970   -2.6410 O.2   258  ARG258     -0.2867
    103  CB        12.9720    0.7010    0.4160 C.3   258  ARG258      0.0307
    104  CG        12.5390    1.8370   -0.4960 C.3   258  ARG258      0.0489
    105  CD        11.2160    2.4340   -0.0440 C.3   258  ARG258      0.2205
    106  NE        10.7660    3.5020   -0.9330 N.pl3 258  ARG258     -0.0865
    107  CZ        10.3640    4.6990   -0.5180 C.cat 258  ARG258      0.5346
    108  NH1        9.9710    5.6100   -1.3980 N.pl3 258  ARG258      0.1354
    109  NH2       10.3560    4.9870    0.7760 N.pl3 258  ARG258      0.1354
    110  N         -0.9920   -7.1980   -7.3860 N.3   283  LEU283     -0.1245
    111  CA        -2.4270   -7.4280   -7.3310 C.3   283  LEU283      0.1561
    112  C         -3.0820   -8.0060   -8.5830 C.2   283  LEU283      0.2260
    113  O         -2.8270   -7.5740   -9.6900 O.2   283  LEU283     -0.2867
    114  CB        -3.1460   -6.1360   -6.9530 C.3   283  LEU283      0.0270
    115  CG        -2.2900   -4.8940   -6.7510 C.3   283  LEU283      0.0019
    116  CD1       -2.2330   -4.0890   -8.0340 C.3   283  LEU283      0.0001
    117  CD2       -2.7360   -4.0700   -5.5540 C.3   283  LEU283      0.0001
    118  N         -9.7850   -2.1450   -3.8610 N.3   291  LEU291     -0.1245
    119  CA        -8.9390   -1.1810   -3.1690 C.3   291  LEU291      0.1561
    120  C         -9.4500    0.2320   -3.4100 C.2   291  LEU291      0.2260
    121  O         -9.5890    1.0270   -2.4750 O.2   291  LEU291     -0.2867
    122  CB        -7.4830   -1.2860   -3.6250 C.3   291  LEU291      0.0270
    123  CG        -6.6640   -0.0960   -3.1220 C.3   291  LEU291      0.0019
    124  CD1       -6.7280   -0.0400   -1.6200 C.3   291  LEU291      0.0001
    125  CD2       -5.2260   -0.1510   -3.5670 C.3   291  LEU291      0.0001
    126  N        -11.5680    3.8520   -0.3080 N.3   295  TYR295     -0.1241
    127  CA       -11.6160    5.3080   -0.2440 C.3   295  TYR295      0.1605
    128  C        -12.8850    5.8360   -0.9070 C.2   295  TYR295      0.2264
    129  O        -13.4510    6.8400   -0.4700 O.2   295  TYR295     -0.2867
    130  CB       -10.3860    5.9310   -0.9120 C.3   295  TYR295      0.0534
    131  CG        -9.1230    5.1170   -0.7760 C.ar  295  TYR295     -0.0201
    132  CD1       -8.8260    4.1200   -1.6900 C.ar  295  TYR295     -0.0009
    133  CD2       -8.2230    5.3520    0.2560 C.ar  295  TYR295     -0.0009
    134  CE1       -7.6760    3.3740   -1.5850 C.ar  295  TYR295      0.0417
    135  CE2       -7.0610    4.6050    0.3730 C.ar  295  TYR295      0.0417
    136  CZ        -6.7950    3.6180   -0.5540 C.ar  295  TYR295      0.1957
    137  OH        -5.6500    2.8650   -0.4590 O.3   295  TYR295     -0.2866
    138  N          0.0380    0.6880   -5.4260 N.3   312  PRO312     -0.2102
    139  CA        -1.0110    1.1330   -4.5420 C.3   312  PRO312      0.1504
    140  C         -0.8340    2.6130   -4.3590 C.2   312  PRO312      0.2575
    141  O         -1.8280    3.3360   -4.3180 O.2   312  PRO312     -0.2718
    142  CB        -0.7180    0.3490   -3.2900 C.3   312  PRO312      0.0282
    143  CG        -0.3240   -0.9760   -3.8540 C.3   312  PRO312      0.0208
    144  CD         0.3900   -0.7080   -5.1480 C.3   312  PRO312      0.0893
    145  N          0.4130    3.0600   -4.2470 N.am  313  ARG313     -0.1980
    146  CA         0.7120    4.4730   -4.0570 C.3   313  ARG313      0.1597
    147  C         -0.0050    5.3350   -5.0870 C.2   313  ARG313      0.2287
    148  O         -0.5610    6.3810   -4.7540 O.2   313  ARG313     -0.2864
    149  CB         2.2220    4.7150   -4.1280 C.3   313  ARG313      0.0334
    150  CG         2.7010    5.8980   -3.3030 C.3   313  ARG313      0.0492
    151  CD         3.5260    5.4420   -2.1110 C.3   313  ARG313      0.2205
    152  NE         3.0670    6.0490   -0.8650 N.pl3 313  ARG313     -0.0865
    153  CZ         3.8140    6.8380   -0.0990 C.cat 313  ARG313      0.5346
    154  NH1        5.0610    7.1200   -0.4520 N.pl3 313  ARG313      0.1354
    155  NH2        3.3140    7.3470    1.0190 N.pl3 313  ARG313      0.1354
    156  N         -3.8850    4.7110   -4.3280 N.3   316  SER316     -0.1217
    157  CA        -4.3920    5.2730   -3.0830 C.3   316  SER316      0.1889
    158  C         -4.4860    6.7930   -3.1640 C.2   316  SER316      0.2288
    159  O         -5.4640    7.3890   -2.7130 O.2   316  SER316     -0.2866
    160  CB        -3.5010    4.8630   -1.9080 C.3   316  SER316      0.2089
    161  OG        -3.8270    3.5630   -1.4510 O.3   316  SER316     -0.2183
@<TRIPOS>BOND
     1   113   112    2
     2   112   111    1
     3   116   115    1
     4   110   111    1
     5   111   114    1
     6   114   115    1
     7   115   117    1
     8    46    44    1
     9   138   144    1
    10   138   139    1
    11    45    44    1
    12   144   143    1
    13   147   148    2
    14   147   146    1
    15    44    43    1
    16    42    41    2
    17    39    40    1
    18   139   140    1
    19   139   142    1
    20   140   141    2
    21   140   145   am
    22   156   157    1
    23   145   146    1
    24   149   146    1
    25   149   150    1
    26    43    40    1
    27   118   119    1
    28    50    49    2
    29   143   142    1
    30    41    40    1
    31    41    47   am
    32   122   119    1
    33   122   123    1
    34   125   123    1
    35   120   119    1
    36   120   121    2
    37    55    56    1
    38    55    52    1
    39   150   151    1
    40   158   157    1
    41   158   159    2
    42   123   124    1
    43    49    51   am
    44    49    48    1
    45   157   160    1
    46    38    36    1
    47    52    51    1
    48    52    53    1
    49   102   101    2
    50    47    48    1
    51    37    36    1
    52    36    35    2
    53   151   152    1
    54   160   161    1
    55   132   134   ar
    56   132   131   ar
    57   134   136   ar
    58    53    54    2
    59    53    57   am
    60   101   100    1
    61   108   107    1
    62    35    34    1
    63    32    33    1
    64    32    29    1
    65    33    34    1
    66   106   107    2
    67   106   105    1
    68   130   131    1
    69   130   127    1
    70   128   129    2
    71   128   127    1
    72   152   153    2
    73   131   133   ar
    74    29    30    1
    75    29    28    1
    76    57    58    1
    77   136   137    1
    78   136   135   ar
    79   107   109    1
    80   104   105    1
    81   104   103    1
    82   154   153    1
    83    30    31    2
    84   126   127    1
    85   100   103    1
    86   100    99    1
    87    26    25    1
    88    68    69    1
    89    68    67    1
    90   153   155    1
    91   133   135   ar
    92    25    27    1
    93    25    22    1
    94    58    59    1
    95    67    66    1
    96    59    61   am
    97    59    60    2
    98    24    23    2
    99    61    62    1
   100    66    65    1
   101    23    22    1
   102    22    21    1
   103    62    65    1
   104    62    63    1
   105    21    15   am
   106     4     3    2
   107    63    64    2
   108    63    70   am
   109     7     9   ar
   110     7     6   ar
   111     5     6    1
   112     5     2    1
   113    15    16    2
   114    15    14    1
   115     3     2    1
   116     3    13   am
   117    20    18   am
   118     9    11   ar
   119     6     8   ar
   120     2     1    1
   121    70    71    1
   122    81    82    1
   123    81    78    1
   124    14    13    1
   125    14    17    1
   126    87    89   ar
   127    87    84   ar
   128    89    90   ar
   129    11    12    1
   130    11    10   ar
   131    82    84   ar
   132    82    83   ar
   133     8    10   ar
   134    84    86   ar
   135    94    93    2
   136    75    74    1
   137    83    85   ar
   138    90    88   ar
   139    86    88   ar
   140    86    85   ar
   141    92    93    1
   142    92    95    1
   143    92    91    1
   144    18    17    1
   145    18    19    2
   146    77    78    1
   147    77    72   am
   148    79    78    1
   149    79    80    2
   150    98    96   am
   151    96    97    2
   152    96    95    1
   153    71    72    1
   154    71    74    1
   155    72    73    2
   156    74    76    1
