@<TRIPOS>MOLECULE
/Users/jeffrey/Documents/Datasets/tough-c1/pocket-lpc-nucleotide/4qreA01-1.pdb
 177 177 0 0 0
SMALL
GASTEIGER

@<TRIPOS>ATOM
      1  N          2.3340    7.5720   -4.5530 N.3    10  PRO10      -0.2116
      2  CA         1.5090    8.2220   -3.5340 C.3    10  PRO10       0.1372
      3  C          2.3980    8.8230   -2.4490 C.2    10  PRO10       0.2244
      4  O          3.5720    8.4860   -2.3630 O.2    10  PRO10      -0.2868
      5  CB         0.6860    7.0620   -2.9540 C.3    10  PRO10       0.0268
      6  CG         0.7300    5.9860   -4.0060 C.3    10  PRO10       0.0207
      7  CD         2.1130    6.1140   -4.5670 C.3    10  PRO10       0.0892
      8  N          3.0750    8.6620    1.2650 N.3    12  TYR12      -0.1227
      9  CA         2.7170    7.7010    2.3080 C.3    12  TYR12       0.1736
     10  C          2.4790    8.3720    3.6540 C.2    12  TYR12       0.2595
     11  O          3.0600    9.4290    3.9430 O.2    12  TYR12      -0.2718
     12  CB         3.7540    6.5790    2.4080 C.3    12  TYR12       0.0548
     13  CG         4.1000    6.0030    1.0570 C.ar   12  TYR12      -0.0200
     14  CD1        3.1260    5.3600    0.2740 C.ar   12  TYR12      -0.0009
     15  CD2        5.3850    6.1450    0.5360 C.ar   12  TYR12      -0.0009
     16  CE1        3.4320    4.8390   -0.9780 C.ar   12  TYR12       0.0417
     17  CE2        5.7070    5.6360   -0.7420 C.ar   12  TYR12       0.0417
     18  CZ         4.7330    4.9830   -1.4770 C.ar   12  TYR12       0.1957
     19  OH         5.0750    4.4970   -2.7140 O.3    12  TYR12      -0.2866
     20  N          1.6190    7.7550    4.4640 N.am   13  TYR13      -0.1976
     21  CA         1.2480    8.3120    5.7650 C.3    13  TYR13       0.1639
     22  C          2.1240    7.7130    6.8790 C.2    13  TYR13       0.2290
     23  O          1.9780    6.5270    7.2180 O.2    13  TYR13      -0.2864
     24  CB        -0.2530    8.0730    6.0340 C.3    13  TYR13       0.0560
     25  CG        -0.8460    9.0360    7.0510 C.ar   13  TYR13      -0.0198
     26  CD1       -0.7740   10.4170    6.8480 C.ar   13  TYR13      -0.0009
     27  CD2       -1.4860    8.5710    8.1950 C.ar   13  TYR13      -0.0009
     28  CE1       -1.2980   11.3160    7.7700 C.ar   13  TYR13       0.0417
     29  CE2       -2.0180    9.4710    9.1360 C.ar   13  TYR13       0.0417
     30  CZ        -1.9190   10.8400    8.9110 C.ar   13  TYR13       0.1957
     31  OH        -2.4630   11.7250    9.8200 O.3    13  TYR13      -0.2866
     32  N          6.3070   -0.7260    4.8810 N.3    19  HIS19      -0.1241
     33  CA         6.5630   -2.1560    4.6660 C.3    19  HIS19       0.1621
     34  C          6.7640   -2.4440    3.1710 C.2    19  HIS19       0.2264
     35  O          6.7940   -1.5150    2.3430 O.2    19  HIS19      -0.2867
     36  CB         5.4430   -3.0210    5.2670 C.3    19  HIS19       0.0745
     37  CG         4.0680   -2.6000    4.8540 C.ar   19  HIS19       0.0817
     38  ND1        3.5970   -2.7560    3.5680 N.ar   19  HIS19      -0.2268
     39  CD2        3.0570   -2.0420    5.5620 C.ar   19  HIS19       0.1154
     40  CE1        2.3600   -2.2960    3.4970 C.ar   19  HIS19       0.1986
     41  NE2        2.0100   -1.8590    4.6940 N.ar   19  HIS19      -0.2212
     42  N          4.8260   -3.3830    0.9440 N.3    21  GLY21      -0.1210
     43  CA         3.7380   -2.8320    0.1160 C.3    21  GLY21       0.1956
     44  C          4.1010   -1.4390   -0.3900 C.2    21  GLY21       0.2611
     45  O          3.9550   -1.1240   -1.5780 O.2    21  GLY21      -0.2717
     46  N          4.6100   -0.6140    0.5170 N.am   22  HIS22      -0.1975
     47  CA         5.1040    0.7080    0.1310 C.3    22  HIS22       0.1656
     48  C          6.3330    0.5920   -0.7850 C.2    22  HIS22       0.2291
     49  O          6.4270    1.2960   -1.7900 O.2    22  HIS22      -0.2864
     50  CB         5.4020    1.5600    1.3660 C.3    22  HIS22       0.0771
     51  CG         4.2570    1.6470    2.3280 C.ar   22  HIS22       0.0820
     52  ND1        4.1760    0.8620    3.4580 N.ar   22  HIS22      -0.2267
     53  CD2        3.1420    2.4130    2.3180 C.ar   22  HIS22       0.1154
     54  CE1        3.0630    1.1510    4.1110 C.ar   22  HIS22       0.1986
     55  NE2        2.4170    2.0880    3.4380 N.ar   22  HIS22      -0.2212
     56  N          7.0470   -1.7580   -2.8200 N.3    24  TYR24      -0.1227
     57  CA         6.5220   -2.2140   -4.0980 C.3    24  TYR24       0.1736
     58  C          6.2190   -1.0530   -5.0440 C.2    24  TYR24       0.2596
     59  O          6.7620   -1.0090   -6.1470 O.2    24  TYR24      -0.2718
     60  CB         5.2880   -3.0830   -3.8500 C.3    24  TYR24       0.0548
     61  CG         4.6690   -3.7400   -5.0460 C.ar   24  TYR24      -0.0200
     62  CD1        5.4360   -4.4800   -5.9540 C.ar   24  TYR24      -0.0009
     63  CD2        3.2850   -3.7030   -5.2280 C.ar   24  TYR24      -0.0009
     64  CE1        4.8370   -5.1280   -7.0410 C.ar   24  TYR24       0.0417
     65  CE2        2.6850   -4.3430   -6.3020 C.ar   24  TYR24       0.0417
     66  CZ         3.4610   -5.0450   -7.2070 C.ar   24  TYR24       0.1957
     67  OH         2.8530   -5.6850   -8.2630 O.3    24  TYR24      -0.2866
     68  N          5.3840   -0.1040   -4.6070 N.am   25  SER25      -0.1952
     69  CA         5.0610    1.0810   -5.4370 C.3    25  SER25       0.1924
     70  C          6.3120    1.8940   -5.7880 C.2    25  SER25       0.2314
     71  O          6.4750    2.3400   -6.9280 O.2    25  SER25      -0.2863
     72  CB         4.0830    2.0060   -4.7000 C.3    25  SER25       0.2116
     73  OG         2.8940    1.3230   -4.3300 O.3    25  SER25      -0.2180
     74  N         -0.0700    3.9900   -7.9400 N.3   268  MET268     -0.1230
     75  CA        -0.6940    3.7460   -6.6270 C.3   268  MET268      0.1702
     76  C         -1.2690    2.3280   -6.5660 C.2   268  MET268      0.2592
     77  O         -1.3070    1.6290   -7.5830 O.2   268  MET268     -0.2718
     78  CB        -1.8400    4.7370   -6.3950 C.3   268  MET268      0.0401
     79  CG        -3.0110    4.5630   -7.3780 C.3   268  MET268      0.0596
     80  SD        -3.9200    6.0840   -7.7410 S.3   268  MET268     -0.1393
     81  CE        -2.6760    6.9980   -8.6480 C.3   268  MET268      0.0692
     82  N         -1.7380    1.9190   -5.3870 N.am  269  ALA269     -0.1980
     83  CA        -2.6130    0.7220   -5.2810 C.3   269  ALA269      0.1597
     84  C         -4.0950    1.1060   -5.4070 C.2   269  ALA269      0.2287
     85  O         -4.4340    2.2890   -5.3550 O.2   269  ALA269     -0.2864
     86  CB        -2.3710   -0.0420   -3.9780 C.3   269  ALA269      0.0319
     87  N         -6.8630    1.2260   -3.6700 N.3   271  GLU271     -0.1231
     88  CA        -7.7520    1.8870   -2.6970 C.3   271  GLU271      0.1699
     89  C         -7.7960    3.4250   -2.8060 C.2   271  GLU271      0.2592
     90  O         -8.6730    4.0630   -2.2150 O.2   271  GLU271     -0.2718
     91  CB        -7.4660    1.4400   -1.2560 C.3   271  GLU271      0.0402
     92  CG        -6.2120    2.0390   -0.6460 C.3   271  GLU271      0.1161
     93  CD        -4.9470    1.6070   -1.3580 C.2   271  GLU271      0.3649
     94  OE1       -4.7770    0.3830   -1.6140 O.co2 271  GLU271     -0.2457
     95  OE2       -4.1330    2.5010   -1.6620 O.co2 271  GLU271     -0.2457
     96  N         -6.8580    4.0110   -3.5520 N.am  272  ILE272     -0.1980
     97  CA        -6.8280    5.4680   -3.7280 C.3   272  ILE272      0.1595
     98  C         -7.0160    5.8880   -5.1950 C.2   272  ILE272      0.2287
     99  O         -6.8840    7.0670   -5.5250 O.2   272  ILE272     -0.2864
    100  CB        -5.5660    6.1310   -3.1090 C.3   272  ILE272      0.0276
    101  CG1       -4.2710    5.6090   -3.7540 C.3   272  ILE272      0.0022
    102  CG2       -5.5520    5.9680   -1.5740 C.3   272  ILE272      0.0022
    103  CD1       -2.9850    6.2590   -3.1530 C.3   272  ILE272      0.0001
    104  N         -1.6350   -0.5730   -9.3740 N.3   298  HIS298     -0.1226
    105  CA        -1.2100   -1.9650   -9.2650 C.3   298  HIS298      0.1752
    106  C         -1.9830   -2.6840   -8.1560 C.2   298  HIS298      0.2597
    107  O         -2.7860   -2.0660   -7.4440 O.2   298  HIS298     -0.2718
    108  CB         0.2970   -2.0610   -9.0220 C.3   298  HIS298      0.0759
    109  CG         0.7590   -1.3440   -7.7940 C.ar  298  HIS298      0.0818
    110  ND1        0.4350   -1.7640   -6.5210 N.ar  298  HIS298     -0.2268
    111  CD2        1.5290   -0.2380   -7.6450 C.ar  298  HIS298      0.1154
    112  CE1        0.9780   -0.9360   -5.6390 C.ar  298  HIS298      0.1986
    113  NE2        1.6580   -0.0110   -6.2970 N.ar  298  HIS298     -0.2212
    114  N         -1.7350   -3.9880   -8.0120 N.am  299  GLY299     -0.1942
    115  CA        -2.4370   -4.8030   -7.0270 C.3   299  GLY299      0.2014
    116  C         -1.8160   -4.7340   -5.6450 C.2   299  GLY299      0.2639
    117  O         -0.8840   -3.9660   -5.4100 O.2   299  GLY299     -0.2714
    118  N         -2.3340   -5.5490   -4.7370 N.am  300  TRP300     -0.1959
    119  CA        -1.8690   -5.5870   -3.3550 C.3   300  TRP300      0.1771
    120  C         -0.9460   -6.7570   -3.0960 C.2   300  TRP300      0.2619
    121  O         -1.1580   -7.8640   -3.6090 O.2   300  TRP300     -0.2715
    122  CB        -3.0550   -5.7260   -2.3880 C.3   300  TRP300      0.0590
    123  CG        -3.9430   -4.5290   -2.2970 C.ar  300  TRP300      0.0006
    124  CD1       -3.6030   -3.2230   -2.5220 C.ar  300  TRP300      0.0946
    125  CD2       -5.3250   -4.5300   -1.9290 C.ar  300  TRP300      0.0152
    126  NE1       -4.6980   -2.4090   -2.3300 N.ar  300  TRP300     -0.2442
    127  CE2       -5.7680   -3.1850   -1.9640 C.ar  300  TRP300      0.0810
    128  CE3       -6.2350   -5.5390   -1.5740 C.ar  300  TRP300      0.0012
    129  CZ2       -7.0850   -2.8200   -1.6530 C.ar  300  TRP300      0.0191
    130  CZ3       -7.5510   -5.1760   -1.2590 C.ar  300  TRP300      0.0001
    131  CH2       -7.9590   -3.8260   -1.3010 C.ar  300  TRP300      0.0015
    132  N          0.0760   -6.5160   -2.2820 N.am  301  ILE301     -0.1977
    133  CA         0.7920   -7.5990   -1.6280 C.3   301  ILE301      0.1596
    134  C         -0.0520   -8.0720   -0.4440 C.2   301  ILE301      0.2287
    135  O         -0.4310   -7.2800    0.4300 O.2   301  ILE301     -0.2864
    136  CB         2.1880   -7.1610   -1.1380 C.3   301  ILE301      0.0276
    137  CG1        3.0480   -6.6960   -2.3220 C.3   301  ILE301      0.0022
    138  CG2        2.8680   -8.2900   -0.3680 C.3   301  ILE301      0.0022
    139  CD1        4.3980   -6.1210   -1.9260 C.3   301  ILE301      0.0001
    140  N         -4.6170   -8.4670    2.8450 N.3   307  LYS307     -0.1231
    141  CA        -3.7530   -7.3140    2.4760 C.3   307  LYS307      0.1693
    142  C         -2.7710   -6.9590    3.5910 C.2   307  LYS307      0.2592
    143  O         -3.1560   -6.8580    4.7670 O.2   307  LYS307     -0.2718
    144  CB        -4.5540   -6.0510    2.0910 C.3   307  LYS307      0.0285
    145  CG        -3.6650   -4.8570    1.6280 C.3   307  LYS307      0.0035
    146  CD        -4.4730   -3.5750    1.4280 C.3   307  LYS307      0.0206
    147  CE        -3.5840   -2.4020    1.0060 C.3   307  LYS307      0.1093
    148  NZ        -4.3650   -1.1280    0.9320 N.3   307  LYS307     -0.1314
    149  N         -1.5050   -6.7820    3.2140 N.am  308  MET308     -0.1965
    150  CA        -0.4670   -6.3950    4.1570 C.3   308  MET308      0.1736
    151  C         -0.6780   -4.9480    4.6000 C.2   308  MET308      0.2617
    152  O         -0.7130   -4.0390    3.7800 O.2   308  MET308     -0.2715
    153  CB         0.9210   -6.5530    3.5440 C.3   308  MET308      0.0427
    154  CG         2.0280   -6.1210    4.4900 C.3   308  MET308      0.0599
    155  SD         3.6880   -6.3620    3.8540 S.3   308  MET308     -0.1393
    156  CE         3.7380   -8.1530    3.6860 C.3   308  MET308      0.0692
    157  N         -0.8280   -4.7600    5.9100 N.am  309  SER309     -0.1936
    158  CA        -1.0710   -3.4450    6.4910 C.3   309  SER309      0.2055
    159  C         -0.7420   -3.4570    7.9790 C.2   309  SER309      0.2643
    160  O         -0.9820   -4.4560    8.6660 O.2   309  SER309     -0.2714
    161  CB        -2.5270   -3.0140    6.2880 C.3   309  SER309      0.2130
    162  OG        -2.5860   -1.6140    6.0220 O.3   309  SER309     -0.2179
    163  N         -0.2250   -2.3350    8.4730 N.am  310  LYS310     -0.1963
    164  CA         0.1980   -2.2130    9.8790 C.3   310  LYS310      0.1728
    165  C         -0.8660   -2.5730   10.9170 C.2   310  LYS310      0.2616
    166  O         -0.5420   -3.1510   11.9650 O.2   310  LYS310     -0.2715
    167  CB         0.7710   -0.8170   10.1680 C.3   310  LYS310      0.0311
    168  CG        -0.2130    0.3470   10.0320 C.3   310  LYS310      0.0038
    169  CD         0.4740    1.6710   10.4090 C.3   310  LYS310      0.0206
    170  CE        -0.5060    2.8370   10.4720 C.3   310  LYS310      0.1093
    171  NZ        -0.9480    3.3130    9.1240 N.3   310  LYS310     -0.1314
    172  N         -2.1210   -2.2300   10.6280 N.am  311  SER311     -0.1950
    173  CA        -3.2240   -2.4730   11.5600 C.3   311  SER311      0.1924
    174  C         -3.5630   -3.9580   11.6750 C.2   311  SER311      0.2314
    175  O         -4.1420   -4.3900   12.6740 O.2   311  SER311     -0.2863
    176  CB        -4.4760   -1.6850   11.1470 C.3   311  SER311      0.2116
    177  OG        -4.9500   -2.0870    9.8670 O.3   311  SER311     -0.2180
@<TRIPOS>BOND
     1   104   105    1
     2   105   108    1
     3   105   106    1
     4   108   109    1
     5    81    80    1
     6    67    66    1
     7   106   114   am
     8   106   107    2
     9   114   115    1
    10    74    75    1
    11   109   111   ar
    12   109   110   ar
    13    80    79    1
    14   111   113   ar
    15    77    76    2
    16    79    78    1
    17    66    64   ar
    18    66    65   ar
    19    64    62   ar
    20   115   116    1
    21    71    70    2
    22    75    76    1
    23    75    78    1
    24    76    82   am
    25   110   112   ar
    26    65    63   ar
    27   113   112   ar
    28    59    58    2
    29    62    61   ar
    30    70    69    1
    31   116   117    2
    32   116   118   am
    33    99    98    2
    34    69    72    1
    35    69    68    1
    36    84    85    2
    37    84    83    1
    38    82    83    1
    39    83    86    1
    40    63    61   ar
    41    98    97    1
    42    61    60    1
    43    58    68   am
    44    58    57    1
    45   118   119    1
    46    72    73    1
    47     7     1    1
    48     7     6    1
    49     1     2    1
    50    57    60    1
    51    57    56    1
    52     6     5    1
    53   101   103    1
    54   101   100    1
    55    97    96    1
    56    97   100    1
    57    87    88    1
    58   121   120    2
    59    96    89   am
    60     2     5    1
    61     2     3    1
    62   119   120    1
    63   119   122    1
    64   100   102    1
    65   120   132   am
    66    89    88    1
    67    89    90    2
    68    19    18    1
    69    88    91    1
    70   124   126   ar
    71   124   123   ar
    72     3     4    2
    73   122   123    1
    74   126   127   ar
    75   137   139    1
    76   137   136    1
    77   123   125   ar
    78   132   133    1
    79   127   125   ar
    80   127   129   ar
    81   125   128   ar
    82    49    48    2
    83    95    93   ar
    84   129   131   ar
    85   133   136    1
    86   133   134    1
    87    94    93   ar
    88    45    44    2
    89   128   130   ar
    90    18    16   ar
    91    18    17   ar
    92    93    92    1
    93   131   130   ar
    94    91    92    1
    95   136   138    1
    96    16    14   ar
    97    48    47    1
    98    17    15   ar
    99   134   135    2
   100    44    43    1
   101    44    46   am
   102    43    42    1
   103    47    46    1
   104    47    50    1
   105    14    13   ar
   106    15    13   ar
   107   148   147    1
   108   147   146    1
   109    13    12    1
   110     8     9    1
   111    50    51    1
   112   146   145    1
   113   145   144    1
   114   144   141    1
   115     9    12    1
   116     9    10    1
   117    53    51   ar
   118    53    55   ar
   119    51    52   ar
   120    35    34    2
   121   141   140    1
   122   141   142    1
   123    34    33    1
   124   149   142   am
   125   149   150    1
   126    55    54   ar
   127    52    54   ar
   128    40    38   ar
   129    40    41   ar
   130   153   150    1
   131   153   154    1
   132    38    37   ar
   133   142   143    2
   134    10    11    2
   135    10    20   am
   136   156   155    1
   137   152   151    2
   138   155   154    1
   139   150   151    1
   140    20    21    1
   141   151   157   am
   142    33    32    1
   143    33    36    1
   144    41    39   ar
   145    37    36    1
   146    37    39   ar
   147    21    24    1
   148    21    22    1
   149   157   158    1
   150   162   161    1
   151    24    25    1
   152   161   158    1
   153   158   159    1
   154    26    25   ar
   155    26    28   ar
   156    22    23    2
   157    25    27   ar
   158    28    30   ar
   159   159   163   am
   160   159   160    2
   161    27    29   ar
   162   163   164    1
   163    30    29   ar
   164    30    31    1
   165   171   170    1
   166   177   176    1
   167   164   167    1
   168   164   165    1
   169   168   167    1
   170   168   169    1
   171   169   170    1
   172   172   165   am
   173   172   173    1
   174   165   166    2
   175   176   173    1
   176   173   174    1
   177   174   175    2
