@<TRIPOS>MOLECULE
tmp/5iunE00.pdb
 169 161 0 0 0
SMALL
GASTEIGER

@<TRIPOS>ATOM
      1  N         35.2600  -54.2050  -55.1260 N.3   140  GLU140     -0.1231
      2  CA        35.2310  -52.7930  -54.8050 C.3   140  GLU140      0.1699
      3  C         34.4310  -52.4750  -53.5580 C.2   140  GLU140      0.2592
      4  O         34.8670  -51.6420  -52.7560 O.2   140  GLU140     -0.2718
      5  CB        34.7390  -51.9850  -56.0120 C.3   140  GLU140      0.0402
      6  CG        34.5420  -50.5080  -55.7380 C.3   140  GLU140      0.1161
      7  CD        35.7220  -49.7020  -55.2200 C.2   140  GLU140      0.3649
      8  OE1       36.8870  -50.1610  -55.2720 O.co2 140  GLU140     -0.2457
      9  OE2       35.4700  -48.5580  -54.7950 O.co2 140  GLU140     -0.2457
     10  N         33.2610  -53.1270  -53.3930 N.am  141  ALA141     -0.1980
     11  CA        32.3940  -52.9250  -52.2310 C.3   141  ALA141      0.1597
     12  C         33.2000  -53.2190  -50.9800 C.2   141  ALA141      0.2287
     13  O         33.1960  -52.4180  -50.0560 O.2   141  ALA141     -0.2864
     14  CB        31.1890  -53.8410  -52.3080 C.3   141  ALA141      0.0319
     15  N         36.6780  -53.3900  -50.7810 N.3   143  THR143     -0.1203
     16  CA        37.7960  -52.4370  -50.7140 C.3   143  THR143      0.1994
     17  C         37.3020  -51.1890  -49.9740 C.2   143  THR143      0.2618
     18  O         38.0110  -50.6490  -49.1230 O.2   143  THR143     -0.2717
     19  CB        38.2680  -52.0580  -52.1210 C.3   143  THR143      0.1784
     20  OG1       38.7770  -53.2380  -52.7460 O.3   143  THR143     -0.2211
     21  CG2       39.3430  -50.9730  -52.1110 C.3   143  THR143      0.0376
     22  N         36.0680  -50.7510  -50.2800 N.am  144  ASN144     -0.1960
     23  CA        35.4940  -49.5780  -49.6400 C.3   144  ASN144      0.1819
     24  C         35.2470  -49.8130  -48.1690 C.2   144  ASN144      0.2621
     25  O         35.4580  -48.9130  -47.3730 O.2   144  ASN144     -0.2715
     26  CB        34.2180  -49.1600  -50.3290 C.3   144  ASN144      0.1195
     27  CG        34.4170  -48.4240  -51.6250 C.2   144  ASN144      0.2630
     28  OD1       35.5110  -47.9330  -51.9370 O.2   144  ASN144     -0.2716
     29  ND2       33.3380  -48.3240  -52.3890 N.am  144  ASN144     -0.0877
     30  N         34.7900  -51.0100  -47.8000 N.am  145  VAL145     -0.1977
     31  CA        34.5620  -51.3580  -46.4020 C.3   145  VAL145      0.1596
     32  C         35.8950  -51.2140  -45.6670 C.2   145  VAL145      0.2287
     33  O         35.9690  -50.5470  -44.6310 O.2   145  VAL145     -0.2864
     34  CB        33.9830  -52.7910  -46.2360 C.3   145  VAL145      0.0276
     35  CG1       34.0320  -53.2450  -44.7830 C.3   145  VAL145      0.0022
     36  CG2       32.5600  -52.8780  -46.7660 C.3   145  VAL145      0.0022
     37  N         38.8110  -49.6290  -46.5030 N.3   147  LYS147     -0.1231
     38  CA        39.4140  -48.2980  -46.5660 C.3   147  LYS147      0.1693
     39  C         38.6850  -47.2530  -45.7760 C.2   147  LYS147      0.2592
     40  O         39.3340  -46.3490  -45.2640 O.2   147  LYS147     -0.2718
     41  CB        39.4540  -47.7860  -48.0220 C.3   147  LYS147      0.0285
     42  CG        40.3360  -48.5500  -48.9850 C.3   147  LYS147      0.0035
     43  CD        40.8150  -47.6830  -50.1580 C.3   147  LYS147      0.0206
     44  CE        39.7600  -47.0100  -51.0220 C.3   147  LYS147      0.1093
     45  NZ        40.3880  -46.4880  -52.2710 N.3   147  LYS147     -0.1314
     46  N         37.3360  -47.3070  -45.7480 N.am  148  HIS148     -0.1962
     47  CA        36.5350  -46.2130  -45.2050 C.3   148  HIS148      0.1787
     48  C         35.6340  -46.4530  -44.0180 C.2   148  HIS148      0.2620
     49  O         35.3490  -45.5020  -43.3010 O.2   148  HIS148     -0.2715
     50  CB        35.6080  -45.6500  -46.3030 C.3   148  HIS148      0.0785
     51  CG        36.2260  -45.3930  -47.6410 C.ar  148  HIS148      0.0821
     52  ND1       37.1670  -44.3950  -47.8260 N.ar  148  HIS148     -0.2267
     53  CD2       35.9310  -45.9370  -48.8450 C.ar  148  HIS148      0.1154
     54  CE1       37.4520  -44.3990  -49.1190 C.ar  148  HIS148      0.1986
     55  NE2       36.7400  -45.3130  -49.7710 N.ar  148  HIS148     -0.2212
     56  N         35.0740  -47.6430  -43.8740 N.am  149  SER149     -0.1950
     57  CA        33.9700  -47.8410  -42.9540 C.3   149  SER149      0.1924
     58  C         34.2650  -47.7460  -41.4670 C.2   149  SER149      0.2314
     59  O         33.4200  -47.2530  -40.7130 O.2   149  SER149     -0.2863
     60  CB        33.2900  -49.1690  -43.2470 C.3   149  SER149      0.2116
     61  OG        32.5950  -49.5940  -42.0990 O.3   149  SER149     -0.2180
     62  N         27.9580  -53.3770  -43.9700 N.3   171  ASP171     -0.1239
     63  CA        28.9450  -53.2120  -42.9260 C.3   171  ASP171      0.1674
     64  C         28.3460  -52.3490  -41.8090 C.2   171  ASP171      0.2266
     65  O         27.4090  -51.5690  -42.0380 O.2   171  ASP171     -0.2867
     66  CB        30.2730  -52.6790  -43.4680 C.3   171  ASP171      0.1410
     67  CG        30.2740  -51.1920  -43.7830 C.2   171  ASP171      0.3668
     68  OD1       30.1460  -50.3810  -42.8380 O.co2 171  ASP171     -0.2456
     69  OD2       30.4330  -50.8350  -44.9780 O.co2 171  ASP171     -0.2456
     70  N         30.5930  -46.5110  -40.3800 N.3   174  THR174     -0.1203
     71  CA        29.8700  -45.2640  -40.6620 C.3   174  THR174      0.1994
     72  C         30.2070  -44.7870  -42.0500 C.2   174  THR174      0.2618
     73  O         31.3800  -44.8030  -42.4390 O.2   174  THR174     -0.2717
     74  CB        30.0840  -44.1660  -39.5880 C.3   174  THR174      0.1784
     75  OG1       31.4740  -43.8550  -39.4830 O.3   174  THR174     -0.2211
     76  CG2       29.5160  -44.5490  -38.2190 C.3   174  THR174      0.0376
     77  N         29.1780  -44.3780  -42.8060 N.am  175  PHE175     -0.1961
     78  CA        29.3810  -43.8880  -44.1660 C.3   175  PHE175      0.1771
     79  C         30.0940  -42.5400  -44.1460 C.2   175  PHE175      0.2619
     80  O         29.7240  -41.6600  -43.3690 O.2   175  PHE175     -0.2715
     81  CB        28.0740  -43.8390  -44.9540 C.3   175  PHE175      0.0574
     82  CG        28.2910  -43.5530  -46.4170 C.ar  175  PHE175     -0.0200
     83  CD1       28.7890  -44.5310  -47.2660 C.ar  175  PHE175     -0.0042
     84  CD2       28.0060  -42.3050  -46.9480 C.ar  175  PHE175     -0.0042
     85  CE1       29.0120  -44.2590  -48.6220 C.ar  175  PHE175     -0.0003
     86  CE2       28.2180  -42.0400  -48.3050 C.ar  175  PHE175     -0.0003
     87  CZ        28.7470  -43.0080  -49.1260 C.ar  175  PHE175     -0.0000
     88  N         31.1310  -42.3960  -44.9750 N.am  176  LYS176     -0.1963
     89  CA        31.9980  -41.2190  -44.9650 C.3   176  LYS176      0.1728
     90  C         31.8040  -40.2340  -46.1090 C.2   176  LYS176      0.2616
     91  O         32.4350  -39.1750  -46.1140 O.2   176  LYS176     -0.2715
     92  CB        33.4770  -41.6450  -44.9090 C.3   176  LYS176      0.0311
     93  CG        33.8550  -42.5610  -43.7540 C.3   176  LYS176      0.0038
     94  CD        33.5300  -41.9970  -42.3870 C.3   176  LYS176      0.0206
     95  CE        34.2590  -42.7580  -41.3190 C.3   176  LYS176      0.1093
     96  NZ        33.8820  -44.2020  -41.3200 N.3   176  LYS176     -0.1314
     97  N         30.9870  -40.5770  -47.0840 N.am  177  GLY177     -0.1955
     98  CA        30.7550  -39.6870  -48.2170 C.3   177  GLY177      0.1869
     99  C         29.6330  -38.7130  -47.8890 C.2   177  GLY177      0.2309
    100  O         29.6850  -38.0150  -46.8710 O.2   177  GLY177     -0.2863
    101  N         27.6710  -39.9190  -53.3710 N.3   181  SER181     -0.1217
    102  CA        29.1280  -39.9370  -53.3760 C.3   181  SER181      0.1889
    103  C         29.5800  -40.5810  -54.6730 C.2   181  SER181      0.2288
    104  O         30.6320  -41.2240  -54.7160 O.2   181  SER181     -0.2866
    105  CB        29.6420  -40.7820  -52.2220 C.3   181  SER181      0.2089
    106  OG        29.2770  -40.1890  -50.9940 O.3   181  SER181     -0.2183
    107  N         31.1340  -40.0430  -57.8090 N.3   183  SER183     -0.1217
    108  CA        31.9760  -39.1040  -58.5350 C.3   183  SER183      0.1889
    109  C         32.7920  -39.7740  -59.6080 C.2   183  SER183      0.2288
    110  O         33.1910  -40.9430  -59.4750 O.2   183  SER183     -0.2866
    111  CB        32.8960  -38.3490  -57.5840 C.3   183  SER183      0.2089
    112  OG        33.7350  -39.2630  -56.9010 O.3   183  SER183     -0.2183
    113  N         35.6620  -41.0210  -61.8980 N.3   185  GLY185     -0.1210
    114  CA        36.9400  -41.6720  -61.6550 C.3   185  GLY185      0.1956
    115  C         37.0370  -42.5380  -60.4240 C.2   185  GLY185      0.2612
    116  O         38.1380  -42.9780  -60.0780 O.2   185  GLY185     -0.2717
    117  N         35.8990  -42.7980  -59.7600 N.am  186  HIS186     -0.1961
    118  CA        35.9040  -43.5700  -58.5230 C.3   186  HIS186      0.1787
    119  C         34.9510  -44.7580  -58.5840 C.2   186  HIS186      0.2621
    120  O         34.1770  -44.8840  -59.5370 O.2   186  HIS186     -0.2715
    121  CB        35.6820  -42.6510  -57.3040 C.3   186  HIS186      0.0785
    122  CG        36.7730  -41.6270  -57.1530 C.ar  186  HIS186      0.0821
    123  ND1       38.0710  -41.9870  -56.7940 N.ar  186  HIS186     -0.2267
    124  CD2       36.7450  -40.2950  -57.3800 C.ar  186  HIS186      0.1154
    125  CE1       38.7700  -40.8640  -56.7900 C.ar  186  HIS186      0.1986
    126  NE2       38.0140  -39.8190  -57.1340 N.ar  186  HIS186     -0.2212
    127  N         35.0930  -45.6490  -57.6060 N.am  187  GLY187     -0.1940
    128  CA        34.4110  -46.9310  -57.5330 C.3   187  GLY187      0.2014
    129  C         32.9060  -46.9460  -57.4870 C.2   187  GLY187      0.2639
    130  O         32.3020  -47.7820  -58.1580 O.2   187  GLY187     -0.2714
    131  N         32.2790  -46.0620  -56.6980 N.am  188  LEU188     -0.1963
    132  CA        30.8200  -46.1060  -56.6260 C.3   188  LEU188      0.1728
    133  C         30.1570  -45.8230  -57.9730 C.2   188  LEU188      0.2616
    134  O         29.2730  -46.5810  -58.4030 O.2   188  LEU188     -0.2715
    135  CB        30.2450  -45.2260  -55.5210 C.3   188  LEU188      0.0311
    136  CG        30.4180  -45.7290  -54.0980 C.3   188  LEU188      0.0022
    137  CD1       29.9810  -44.6700  -53.1320 C.3   188  LEU188      0.0001
    138  CD2       29.6440  -47.0010  -53.8590 C.3   188  LEU188      0.0001
    139  N         30.6180  -44.7720  -58.6560 N.am  189  LEU189     -0.1977
    140  CA        30.0960  -44.4510  -59.9700 C.3   189  LEU189      0.1596
    141  C         30.5240  -45.5030  -61.0060 C.2   189  LEU189      0.2287
    142  O         29.7320  -45.8700  -61.8820 O.2   189  LEU189     -0.2864
    143  CB        30.4880  -43.0440  -60.3830 C.3   189  LEU189      0.0297
    144  CG        29.9060  -42.5810  -61.7220 C.3   189  LEU189      0.0022
    145  CD1       28.3520  -42.7600  -61.7970 C.3   189  LEU189      0.0001
    146  CD2       30.3120  -41.1980  -62.0050 C.3   189  LEU189      0.0001
    147  N         22.3130  -48.0280  -52.7070 N.3   204  ILE204     -0.1245
    148  CA        23.0900  -47.8200  -51.5070 C.3   204  ILE204      0.1561
    149  C         22.1990  -47.2950  -50.3760 C.2   204  ILE204      0.2260
    150  O         21.3650  -46.4150  -50.5750 O.2   204  ILE204     -0.2867
    151  CB        24.3530  -46.9430  -51.7860 C.3   204  ILE204      0.0252
    152  CG1       25.2770  -46.8650  -50.5550 C.3   204  ILE204      0.0019
    153  CG2       23.9780  -45.5520  -52.2720 C.3   204  ILE204      0.0019
    154  CD1       26.6880  -46.3720  -50.8660 C.3   204  ILE204      0.0001
    155  N         26.7650  -48.9770  -43.9580 N.3   210  THR210     -0.1218
    156  CA        26.6300  -48.8640  -45.4070 C.3   210  THR210      0.1862
    157  C         26.2130  -50.2150  -45.9540 C.2   210  THR210      0.2287
    158  O         26.8590  -51.2240  -45.6690 O.2   210  THR210     -0.2866
    159  CB        27.9760  -48.4330  -46.0450 C.3   210  THR210      0.1770
    160  OG1       28.4450  -47.2420  -45.4080 O.3   210  THR210     -0.2211
    161  CG2       27.8880  -48.2520  -47.5740 C.3   210  THR210      0.0375
    162  N         25.2720  -51.9780  -49.7080 N.3   212  LEU212     -0.1245
    163  CA        25.2220  -51.9280  -51.1580 C.3   212  LEU212      0.1561
    164  C         24.4330  -53.1250  -51.6620 C.2   212  LEU212      0.2260
    165  O         24.7010  -54.2520  -51.2610 O.2   212  LEU212     -0.2867
    166  CB        26.6370  -51.9990  -51.7500 C.3   212  LEU212      0.0270
    167  CG        27.4360  -50.7140  -51.8930 C.3   212  LEU212      0.0019
    168  CD1       28.7750  -50.9930  -52.4400 C.3   212  LEU212      0.0001
    169  CD2       26.7810  -49.7750  -52.8610 C.3   212  LEU212      0.0001
@<TRIPOS>BOND
     1   146   144    1
     2   113   114    1
     3   142   141    2
     4   145   144    1
     5   144   143    1
     6   114   115    1
     7   141   140    1
     8   115   116    2
     9   115   117   am
    10   143   140    1
    11   140   139    1
    12   117   118    1
    13   109   110    2
    14   109   108    1
    15   120   119    2
    16   139   133   am
    17   119   118    1
    18   119   127   am
    19   108   107    1
    20   108   111    1
    21   118   121    1
    22   134   133    2
    23   130   129    2
    24   133   132    1
    25   127   128    1
    26   111   112    1
    27   128   129    1
    28   129   131   am
    29   124   122   ar
    30   124   126   ar
    31   121   122    1
    32   122   123   ar
    33   126   125   ar
    34   123   125   ar
    35   131   132    1
    36   132   135    1
    37     5     6    1
    38     5     2    1
    39     6     7    1
    40   135   136    1
    41     8     7   ar
    42     7     9   ar
    43     1     2    1
    44     2     3    1
    45   104   103    2
    46   103   102    1
    47   136   138    1
    48   136   137    1
    49     3    10   am
    50     3     4    2
    51    10    11    1
    52   102   101    1
    53   102   105    1
    54   169   167    1
    55    20    19    1
    56   147   148    1
    57   168   167    1
    58    29    27   am
    59    14    11    1
    60   153   151    1
    61    45    44    1
    62    11    12    1
    63   105   106    1
    64    19    21    1
    65    19    16    1
    66    28    27    2
    67   167   166    1
    68   151   148    1
    69   151   152    1
    70   166   163    1
    71   164   165    2
    72   164   163    1
    73    27    26    1
    74   148   149    1
    75   163   162    1
    76    44    43    1
    77    12    13    2
    78   154   152    1
    79    15    16    1
    80    16    17    1
    81   150   149    2
    82    26    23    1
    83    22    17   am
    84    22    23    1
    85    43    42    1
    86    17    18    2
    87    55    54   ar
    88    55    53   ar
    89    23    24    1
    90    87    85   ar
    91    87    86   ar
    92    54    52   ar
    93    42    41    1
    94    53    51   ar
    95    85    83   ar
    96    86    84   ar
    97    98    99    1
    98    98    97    1
    99    24    30   am
   100    24    25    2
   101    41    38    1
   102    99   100    2
   103    52    51   ar
   104    30    31    1
   105    51    50    1
   106   161   159    1
   107    83    82   ar
   108    97    90   am
   109    84    82   ar
   110    36    34    1
   111    38    37    1
   112    38    39    1
   113    82    81    1
   114    31    34    1
   115    31    32    1
   116    50    47    1
   117    34    35    1
   118    91    90    2
   119    90    89    1
   120   159   160    1
   121   159   156    1
   122   157   158    2
   123   157   156    1
   124    39    46   am
   125    39    40    2
   126    46    47    1
   127    32    33    2
   128   156   155    1
   129    47    48    1
   130    69    67   ar
   131    88    89    1
   132    88    79   am
   133    89    92    1
   134    81    78    1
   135    92    93    1
   136    78    79    1
   137    78    77    1
   138    79    80    2
   139    48    56   am
   140    48    49    2
   141    62    63    1
   142    56    57    1
   143    67    66    1
   144    67    68   ar
   145    93    94    1
   146    66    63    1
   147    60    57    1
   148    60    61    1
   149    57    58    1
   150    63    64    1
   151    77    72   am
   152    73    72    2
   153    94    95    1
   154    72    71    1
   155    65    64    2
   156    58    59    2
   157    96    95    1
   158    71    70    1
   159    71    74    1
   160    74    75    1
   161    74    76    1
