@<TRIPOS>MOLECULE
E361110-binding-residue.pdb
 97 92 0 0 0
SMALL
GASTEIGER

@<TRIPOS>ATOM
      1  N        -17.8350   11.7460    5.8810 N.3   177  GLU177     -0.1245
      2  CA       -16.9950   12.1790    4.7970 C.3   177  GLU177      0.1567
      3  CB       -17.6670   13.2340    3.9010 C.3   177  GLU177      0.0388
      4  CG       -18.2420   14.4400    4.6510 C.3   177  GLU177      0.1160
      5  CD       -19.6850   14.1240    5.0340 C.2   177  GLU177      0.3649
      6  OE1      -20.0380   12.9170    5.0930 O.co2 177  GLU177     -0.2457
      7  OE2      -20.4590   15.0900    5.2700 O.co2 177  GLU177     -0.2457
      8  C        -15.7130   12.7450    5.3330 C.2   177  GLU177      0.2260
      9  O        -14.6430   12.4970    4.7790 O.2   177  GLU177     -0.2867
     10  N        -13.4080   10.2430    6.6140 N.3   180  SER180     -0.1217
     11  CA       -12.7340    9.5520    5.5460 C.3   180  SER180      0.1889
     12  CB       -13.6330    9.2610    4.3250 C.3   180  SER180      0.2089
     13  OG       -13.7950   10.4170    3.5200 O.3   180  SER180     -0.2183
     14  C        -11.4520   10.2540    5.0330 C.2   180  SER180      0.2288
     15  O        -10.4590    9.5480    4.8780 O.2   180  SER180     -0.2866
     16  N        -14.7050   -1.7320    7.3800 N.3   208  ASP208     -0.1239
     17  CA       -16.0130   -2.2920    7.1510 C.3   208  ASP208      0.1674
     18  CB       -17.0340   -1.3020    6.5430 C.3   208  ASP208      0.1410
     19  CG       -16.5400   -0.7220    5.2250 C.2   208  ASP208      0.3668
     20  OD1      -15.3050   -0.7320    4.9840 O.co2 208  ASP208     -0.2456
     21  OD2      -17.4080   -0.2410    4.4460 O.co2 208  ASP208     -0.2456
     22  C        -15.9770   -3.5890    6.3950 C.2   208  ASP208      0.2266
     23  O        -16.9070   -3.9040    5.6520 O.2   208  ASP208     -0.2867
     24  N        -10.7810    3.8190   -2.5380 N.3   262  GLY262     -0.1210
     25  CA       -10.2110    4.5340   -1.4300 C.3   262  GLY262      0.1956
     26  C         -9.8490    3.5570   -0.3450 C.2   262  GLY262      0.2611
     27  O         -8.9630    3.8130    0.4720 O.2   262  GLY262     -0.2717
     28  N        -10.6170    2.4490   -0.2930 N.am  263  ALA263     -0.1979
     29  CA       -10.6470    1.3850    0.6770 C.3   263  ALA263      0.1597
     30  CB       -11.8450    0.4440    0.4640 C.3   263  ALA263      0.0319
     31  C         -9.4290    0.5090    0.7620 C.2   263  ALA263      0.2287
     32  O         -9.2310   -0.1180    1.7980 O.2   263  ALA263     -0.2864
     33  N        -16.3310   11.9700   -4.5160 N.3   295  TRP295     -0.1227
     34  CA       -15.8910   10.7820   -3.8430 C.3   295  TRP295      0.1737
     35  CB       -15.3380    9.7130   -4.7790 C.3   295  TRP295      0.0564
     36  CG       -16.5240    9.0940   -5.4630 C.ar  295  TRP295      0.0003
     37  CD2      -17.5240    8.3560   -4.7420 C.ar  295  TRP295      0.0152
     38  CD1      -16.9440    9.1560   -6.7580 C.ar  295  TRP295      0.0946
     39  NE1      -18.1410    8.4930   -6.8910 N.ar  295  TRP295     -0.2442
     40  CE2      -18.5080    7.9960   -5.6580 C.ar  295  TRP295      0.0810
     41  CE3      -17.6130    8.0140   -3.4230 C.ar  295  TRP295      0.0012
     42  CZ2      -19.6070    7.2850   -5.2660 C.ar  295  TRP295      0.0191
     43  CZ3      -18.7170    7.2870   -3.0320 C.ar  295  TRP295      0.0001
     44  CH2      -19.6940    6.9300   -3.9370 C.ar  295  TRP295      0.0015
     45  C        -15.0160   10.9790   -2.6450 C.2   295  TRP295      0.2595
     46  O        -14.5200    9.9810   -2.1350 O.2   295  TRP295     -0.2718
     47  N        -14.6390   12.2290   -2.2960 N.am  296  ARG296     -0.1980
     48  CA       -13.8440   12.5110   -1.1250 C.3   296  ARG296      0.1597
     49  CB       -14.3590   12.0190    0.2580 C.3   296  ARG296      0.0334
     50  CG       -14.4390   10.5130    0.5280 C.3   296  ARG296      0.0492
     51  CD       -15.8290    9.9220    0.2780 C.3   296  ARG296      0.2205
     52  NE       -15.7770    8.4580    0.5560 N.pl3 296  ARG296     -0.0865
     53  CZ       -16.0330    7.9760    1.8090 C.cat 296  ARG296      0.5346
     54  NH1      -16.2540    8.8370    2.8450 N.pl3 296  ARG296      0.1354
     55  NH2      -16.0830    6.6290    2.0210 N.pl3 296  ARG296      0.1354
     56  C        -12.4480   12.0310   -1.3700 C.2   296  ARG296      0.2287
     57  O        -11.8750   12.2830   -2.4260 O.2   296  ARG296     -0.2864
     58  N        -11.3630    9.1860   -2.0320 N.3   298  GLU298     -0.1245
     59  CA       -11.2310    8.2640   -3.1270 C.3   298  GLU298      0.1567
     60  CB       -12.4680    7.3690   -3.2810 C.3   298  GLU298      0.0388
     61  CG       -12.2640    6.2090   -4.2510 C.3   298  GLU298      0.1160
     62  CD       -13.4970    5.3260   -4.1450 C.2   298  GLU298      0.3649
     63  OE1      -13.7480    4.7970   -3.0300 O.co2 298  GLU298     -0.2457
     64  OE2      -14.2100    5.1790   -5.1720 O.co2 298  GLU298     -0.2457
     65  C        -11.0050    9.0240   -4.4000 C.2   298  GLU298      0.2260
     66  O        -10.2430    8.5820   -5.2610 O.2   298  GLU298     -0.2867
     67  N        -14.2830   -6.8210   -2.5820 N.3   320  TRP320     -0.1241
     68  CA       -15.4830   -7.1560   -3.3190 C.3   320  TRP320      0.1605
     69  CB       -15.4330   -8.5780   -3.8950 C.3   320  TRP320      0.0550
     70  CG       -16.5920   -8.9930   -4.7640 C.ar  320  TRP320      0.0003
     71  CD2      -16.6300   -8.8030   -6.1870 C.ar  320  TRP320      0.0152
     72  CD1      -17.7560   -9.6170   -4.4250 C.ar  320  TRP320      0.0946
     73  NE1      -18.5190   -9.8290   -5.5490 N.ar  320  TRP320     -0.2442
     74  CE2      -17.8360   -9.3340   -6.6410 C.ar  320  TRP320      0.0810
     75  CE3      -15.7290   -8.2380   -7.0440 C.ar  320  TRP320      0.0012
     76  CZ2      -18.1610   -9.3070   -7.9660 C.ar  320  TRP320      0.0191
     77  CZ3      -16.0610   -8.2080   -8.3790 C.ar  320  TRP320      0.0001
     78  CH2      -17.2550   -8.7320   -8.8300 C.ar  320  TRP320      0.0015
     79  C        -16.7130   -7.0200   -2.4530 C.2   320  TRP320      0.2264
     80  O        -16.6160   -7.0890   -1.2270 O.2   320  TRP320     -0.2867
     81  N        -23.8170   -3.2750    5.8860 N.3   340  LYS340     -0.1245
     82  CA       -24.1300   -2.4050    6.9750 C.3   340  LYS340      0.1561
     83  CB       -22.9450   -1.5940    7.5520 C.3   340  LYS340      0.0271
     84  CG       -22.4340   -0.4020    6.7330 C.3   340  LYS340      0.0035
     85  CD       -21.7060   -0.7380    5.4310 C.3   340  LYS340      0.0206
     86  CE       -21.0000    0.4730    4.8130 C.3   340  LYS340      0.1093
     87  NZ       -20.4070    0.1050    3.5070 N.3   340  LYS340     -0.1314
     88  C        -25.1760   -1.4320    6.5340 C.2   340  LYS340      0.2260
     89  O        -25.4620   -1.2900    5.3460 O.2   340  LYS340     -0.2867
     90  N        -25.8400    2.1830    6.1550 N.3   342  ILE342     -0.1245
     91  CA       -24.9370    3.2880    6.0940 C.3   342  ILE342      0.1561
     92  CB       -24.7570    3.7960    4.6850 C.3   342  ILE342      0.0252
     93  CG1      -26.0460    4.3770    4.0720 C.3   342  ILE342      0.0019
     94  CG2      -24.1830    2.6220    3.8740 C.3   342  ILE342      0.0019
     95  CD1      -26.3220    5.8390    4.4290 C.3   342  ILE342      0.0001
     96  C        -25.3570    4.3940    6.9980 C.2   342  ILE342      0.2260
     97  O        -24.5260    4.9370    7.7280 O.2   342  ILE342     -0.2867
@<TRIPOS>BOND
     1    78    77   ar
     2    78    76   ar
     3    77    75   ar
     4    76    74   ar
     5    75    71   ar
     6    39    38   ar
     7    39    40   ar
     8    38    36   ar
     9    74    71   ar
    10    74    73   ar
    11    71    70   ar
    12    40    42   ar
    13    40    37   ar
    14    73    72   ar
    15    36    35    1
    16    36    37   ar
    17    42    44   ar
    18    66    65    2
    19    64    62   ar
    20    35    34    1
    21    70    72   ar
    22    70    69    1
    23    37    41   ar
    24    33    34    1
    25    65    59    1
    26    61    62    1
    27    61    60    1
    28    62    63   ar
    29    44    43   ar
    30    69    68    1
    31    34    45    1
    32    41    43   ar
    33    68    67    1
    34    68    79    1
    35    60    59    1
    36    59    58    1
    37    45    47   am
    38    45    46    2
    39    24    25    1
    40    79    80    2
    41    57    56    2
    42    47    48    1
    43    25    26    1
    44    56    48    1
    45    48    49    1
    46    26    28   am
    47    26    27    2
    48    28    29    1
    49    49    50    1
    50    51    50    1
    51    51    52    1
    52    30    29    1
    53    52    53    2
    54    29    31    1
    55    31    32    2
    56    53    55    1
    57    53    54    1
    58    87    86    1
    59    13    12    1
    60    94    92    1
    61     3     4    1
    62     3     2    1
    63    93    95    1
    64    93    92    1
    65    12    11    1
    66    21    19   ar
    67     4     5    1
    68    92    91    1
    69     9     8    2
    70     2     8    1
    71     2     1    1
    72    86    85    1
    73    15    14    2
    74    20    19   ar
    75    14    11    1
    76     5     6   ar
    77     5     7   ar
    78    19    18    1
    79    89    88    2
    80    85    84    1
    81    11    10    1
    82    23    22    2
    83    81    82    1
    84    91    90    1
    85    91    96    1
    86    22    17    1
    87    88    82    1
    88    18    17    1
    89    84    83    1
    90    82    83    1
    91    96    97    2
    92    17    16    1
