@<TRIPOS>MOLECULE
E374447-binding-residue.pdb
 26 26 0 0 0
SMALL
GASTEIGER

@<TRIPOS>ATOM
      1  N         30.0880    7.2950    9.0300 N.3   285  LYS285     -0.1245
      2  CA        29.3550    6.6820    7.9660 C.3   285  LYS285      0.1561
      3  CB        29.7700    7.1980    6.5730 C.3   285  LYS285      0.0271
      4  CG        31.2590    7.0510    6.2520 C.3   285  LYS285      0.0035
      5  CD        31.5890    7.2690    4.7730 C.3   285  LYS285      0.0206
      6  CE        33.0780    7.1230    4.4510 C.3   285  LYS285      0.1093
      7  NZ        33.8440    8.2140    5.0910 N.3   285  LYS285     -0.1314
      8  C         29.6090    5.2050    8.0280 C.2   285  LYS285      0.2260
      9  O         28.6780    4.4230    8.2140 O.2   285  LYS285     -0.2867
     10  N         25.1470    6.6030    9.4980 N.3   308  PRO308     -0.2102
     11  CA        25.3690    5.2270    9.1610 C.3   308  PRO308      0.1504
     12  CD        25.8150    6.9330   10.7470 C.3   308  PRO308      0.0893
     13  CB        25.7560    4.5240   10.4580 C.3   308  PRO308      0.0282
     14  CG        26.4690    5.6340   11.2450 C.3   308  PRO308      0.0208
     15  C         24.2470    4.5930    8.4170 C.2   308  PRO308      0.2575
     16  O         23.0950    4.9750    8.6170 O.2   308  PRO308     -0.2718
     17  N         24.5730    3.6170    7.5450 N.am  309  HIS309     -0.1976
     18  CA        23.5720    2.9910    6.7370 C.3   309  HIS309      0.1656
     19  ND1       24.8640    5.4400    4.8400 N.ar  309  HIS309     -0.2267
     20  CG        23.8020    4.5680    4.7670 C.ar  309  HIS309      0.0820
     21  CB        23.8500    3.1420    5.2320 C.3   309  HIS309      0.0771
     22  NE2       23.1760    6.5700    3.9330 N.ar  309  HIS309     -0.2212
     23  CD2       22.7790    5.2730    4.2110 C.ar  309  HIS309      0.1154
     24  CE1       24.4360    6.6220    4.3280 C.ar  309  HIS309      0.1986
     25  C         23.5440    1.5220    7.0250 C.2   309  HIS309      0.2291
     26  O         22.4840    0.8970    6.9790 O.2   309  HIS309     -0.2864
@<TRIPOS>BOND
     1    22    23   ar
     2    22    24   ar
     3    23    20   ar
     4    24    19   ar
     5     6     5    1
     6     6     7    1
     7    20    19   ar
     8    20    21    1
     9     5     4    1
    10    21    18    1
    11     4     3    1
    12     3     2    1
    13    18    25    1
    14    18    17    1
    15    26    25    2
    16    17    15   am
    17     2     8    1
    18     2     1    1
    19     8     9    2
    20    15    16    2
    21    15    11    1
    22    11    10    1
    23    11    13    1
    24    10    12    1
    25    13    14    1
    26    12    14    1
