@<TRIPOS>MOLECULE
E406084-binding-residue.pdb
 103 97 0 0 0
SMALL
GASTEIGER

@<TRIPOS>ATOM
      1  N          5.6600    0.1860   -7.9780 N.3   295  GLY295     -0.1210
      2  CA         6.6760   -0.6440   -7.4050 C.3   295  GLY295      0.1956
      3  C          7.3870    0.0960   -6.3240 C.2   295  GLY295      0.2612
      4  O          7.4840    1.3230   -6.3350 O.2   295  GLY295     -0.2717
      5  N          7.9070   -0.6810   -5.3540 N.am  296  LEU296     -0.1965
      6  CA         8.6170   -0.1760   -4.2190 C.3   296  LEU296      0.1728
      7  CB         8.2450   -1.0030   -2.9810 C.3   296  LEU296      0.0311
      8  CG         8.6920   -0.4550   -1.6220 C.3   296  LEU296      0.0022
      9  CD1        8.4790   -1.5130   -0.5380 C.3   296  LEU296      0.0001
     10  CD2       10.1130    0.1150   -1.6370 C.3   296  LEU296      0.0001
     11  C         10.0630   -0.4400   -4.5170 C.2   296  LEU296      0.2616
     12  O         10.4970   -1.5900   -4.5040 O.2   296  LEU296     -0.2715
     13  N         10.8330    0.6240   -4.8260 N.am  297  LEU297     -0.1977
     14  CA        12.2200    0.4930   -5.1840 C.3   297  LEU297      0.1596
     15  CB        12.7370    1.6520   -6.0560 C.3   297  LEU297      0.0297
     16  CG        14.1490    1.3920   -6.6190 C.3   297  LEU297      0.0022
     17  CD1       14.1730    0.1170   -7.4780 C.3   297  LEU297      0.0001
     18  CD2       14.6820    2.6110   -7.3870 C.3   297  LEU297      0.0001
     19  C         13.1480    0.3300   -4.0080 C.2   297  LEU297      0.2287
     20  O         14.1760   -0.3300   -4.1360 O.2   297  LEU297     -0.2864
     21  N          9.7780    9.4680   -9.6190 N.3   337  TRP337     -0.1241
     22  CA         9.8380    8.2550   -8.8480 C.3   337  TRP337      0.1605
     23  CB        10.2700    7.0490   -9.7010 C.3   337  TRP337      0.0550
     24  CG         9.3670    6.7650  -10.8790 C.ar  337  TRP337      0.0003
     25  CD2        9.7090    5.8760  -11.9550 C.ar  337  TRP337      0.0152
     26  CD1        8.1400    7.2790  -11.1770 C.ar  337  TRP337      0.0946
     27  NE1        7.6950    6.7670  -12.3740 N.ar  337  TRP337     -0.2442
     28  CE2        8.6520    5.9040  -12.8630 C.ar  337  TRP337      0.0810
     29  CE3       10.8160    5.1060  -12.1710 C.ar  337  TRP337      0.0012
     30  CZ2        8.6870    5.1570  -14.0070 C.ar  337  TRP337      0.0191
     31  CZ3       10.8460    4.3500  -13.3220 C.ar  337  TRP337      0.0001
     32  CH2        9.8020    4.3760  -14.2230 C.ar  337  TRP337      0.0015
     33  C         10.8730    8.4230   -7.7780 C.2   337  TRP337      0.2264
     34  O         11.7350    9.2940   -7.8780 O.2   337  TRP337     -0.2867
     35  N         13.8140    6.4250   -5.9650 N.3   339  SER339     -0.1217
     36  CA        14.6230    5.2410   -6.0600 C.3   339  SER339      0.1889
     37  CB        15.7990    5.4160   -7.0330 C.3   339  SER339      0.2089
     38  OG        15.3080    5.6190   -8.3500 O.3   339  SER339     -0.2183
     39  C         15.2030    4.8050   -4.7470 C.2   339  SER339      0.2288
     40  O         15.4230    3.6130   -4.5550 O.2   339  SER339     -0.2866
     41  N         19.6290    7.5570   -8.0650 N.3   387  ASN387     -0.1240
     42  CA        19.4060    6.1740   -7.7400 C.3   387  ASN387      0.1653
     43  CB        20.3410    5.2270   -8.5090 C.3   387  ASN387      0.1155
     44  CG        19.9000    5.2110   -9.9660 C.2   387  ASN387      0.2627
     45  OD1       20.4190    4.4450  -10.7760 O.2   387  ASN387     -0.2716
     46  ND2       18.9100    6.0780  -10.3120 N.am  387  ASN387     -0.0877
     47  C         19.4930    5.7880   -6.2900 C.2   387  ASN387      0.2266
     48  O         18.7390    4.9130   -5.8740 O.2   387  ASN387     -0.2867
     49  N         24.1290    3.0710   -8.9000 N.3   431  HIS431     -0.1241
     50  CA        22.8340    2.6920   -8.4360 C.3   431  HIS431      0.1621
     51  ND1       20.4660    0.1820   -7.8420 N.ar  431  HIS431     -0.2268
     52  CG        20.9750    0.9620   -8.8570 C.ar  431  HIS431      0.0817
     53  CB        22.4250    1.3190   -9.0090 C.3   431  HIS431      0.0745
     54  NE2       18.7510    0.7160   -9.1520 N.ar  431  HIS431     -0.2212
     55  CD2       19.9120    1.2800   -9.6470 C.ar  431  HIS431      0.1154
     56  CE1       19.1330    0.0650   -8.0680 C.ar  431  HIS431      0.1986
     57  C         22.8310    2.5990   -6.9380 C.2   431  HIS431      0.2264
     58  O         21.7700    2.6820   -6.3250 O.2   431  HIS431     -0.2867
     59  N         18.6520  -11.3680  -11.4110 N.3   515  MET515     -0.1245
     60  CA        19.3280  -10.1750  -10.9760 C.3   515  MET515      0.1570
     61  CB        18.7120   -8.8940  -11.5680 C.3   515  MET515      0.0387
     62  CG        18.5370   -8.8960  -13.0870 C.3   515  MET515      0.0595
     63  SD        20.0690   -8.9470  -14.0570 S.3   515  MET515     -0.1393
     64  CE        19.2800   -8.3410  -15.5750 C.3   515  MET515      0.0692
     65  C         19.1910  -10.0050   -9.4950 C.2   515  MET515      0.2261
     66  O         18.1600  -10.3310   -8.9060 O.2   515  MET515     -0.2867
     67  N         19.1010   -7.1360   -6.8250 N.3   517  HIS517     -0.1241
     68  CA        18.9310   -5.7220   -6.6300 C.3   517  HIS517      0.1621
     69  ND1       16.8660   -4.1370   -8.7840 N.ar  517  HIS517     -0.2268
     70  CG        16.7950   -5.2230   -7.9430 C.ar  517  HIS517      0.0817
     71  CB        17.4550   -5.2810   -6.5980 C.3   517  HIS517      0.0745
     72  NE2       15.6020   -5.6510   -9.8100 N.ar  517  HIS517     -0.2212
     73  CD2       16.0200   -6.1410   -8.5850 C.ar  517  HIS517      0.1154
     74  CE1       16.1340   -4.4440   -9.8850 C.ar  517  HIS517      0.1986
     75  C         19.5310   -5.1800   -5.3640 C.2   517  HIS517      0.2264
     76  O         20.0020   -4.0440   -5.3570 O.2   517  HIS517     -0.2867
     77  N         15.4370  -10.4690   -8.2650 N.3   533  LYS533     -0.1245
     78  CA        14.3980  -10.3710   -9.2360 C.3   533  LYS533      0.1561
     79  CB        14.9550  -10.2540  -10.6640 C.3   533  LYS533      0.0271
     80  CG        13.8980  -10.1590  -11.7620 C.3   533  LYS533      0.0035
     81  CD        14.4860   -9.8100  -13.1290 C.3   533  LYS533      0.0206
     82  CE        13.4330   -9.5470  -14.2070 C.3   533  LYS533      0.1093
     83  NZ        12.6430  -10.7720  -14.4590 N.3   533  LYS533     -0.1314
     84  C         13.6180  -11.6370   -9.1390 C.2   533  LYS533      0.2260
     85  O         12.4130  -11.6550   -9.3830 O.2   533  LYS533     -0.2867
     86  N          9.4590   -9.1920   -8.1210 N.3   566  ARG566     -0.1245
     87  CA        10.8530   -9.0110   -7.8230 C.3   566  ARG566      0.1563
     88  CB        11.6050   -8.2380   -8.9190 C.3   566  ARG566      0.0307
     89  CG        11.3880   -8.7750  -10.3330 C.3   566  ARG566      0.0489
     90  CD        12.0450   -7.9010  -11.4020 C.3   566  ARG566      0.2205
     91  NE        11.3860   -8.2030  -12.7010 N.pl3 566  ARG566     -0.0865
     92  CZ        10.2770   -7.4900  -13.0550 C.cat 566  ARG566      0.5346
     93  NH1        9.8080   -6.5160  -12.2220 N.pl3 566  ARG566      0.1354
     94  NH2        9.6430   -7.7410  -14.2370 N.pl3 566  ARG566      0.1354
     95  C         11.0000   -8.1900   -6.5800 C.2   566  ARG566      0.2260
     96  O         10.2000   -7.2960   -6.3160 O.2   566  ARG566     -0.2867
     97  N         13.2480   -5.5220   -4.7520 N.3   568  THR568     -0.1218
     98  CA        14.2040   -4.4770   -5.0010 C.3   568  THR568      0.1862
     99  CB        13.5410   -3.1800   -5.3510 C.3   568  THR568      0.1770
    100  OG1       12.8040   -2.7060   -4.2340 O.3   568  THR568     -0.2211
    101  CG2       12.6010   -3.4090   -6.5460 C.3   568  THR568      0.0375
    102  C         15.0970   -4.1690   -3.8310 C.2   568  THR568      0.2287
    103  O         16.2400   -3.7710   -4.0370 O.2   568  THR568     -0.2866
@<TRIPOS>BOND
     1    64    63    1
     2    83    82    1
     3    94    92    1
     4    32    30   ar
     5    32    31   ar
     6    82    81    1
     7    63    62    1
     8    30    28   ar
     9    31    29   ar
    10    81    80    1
    11    62    61    1
    12    92    91    2
    13    92    93    1
    14    28    27   ar
    15    28    25   ar
    16    91    90    1
    17    27    26   ar
    18    29    25   ar
    19    25    24   ar
    20    80    79    1
    21    61    60    1
    22    59    60    1
    23    90    89    1
    24    26    24   ar
    25    60    65    1
    26    24    23    1
    27    45    44    2
    28    79    78    1
    29    89    88    1
    30    46    44   am
    31    44    43    1
    32    74    72   ar
    33    74    69   ar
    34    72    73   ar
    35    23    22    1
    36    55    54   ar
    37    55    52   ar
    38    21    22    1
    39    65    66    2
    40    85    84    2
    41    78    84    1
    42    78    77    1
    43    54    56   ar
    44    53    52    1
    45    53    50    1
    46    88    87    1
    47    49    50    1
    48    52    51   ar
    49    22    33    1
    50    69    70   ar
    51    73    70   ar
    52    43    42    1
    53    50    57    1
    54    38    37    1
    55    86    87    1
    56    56    51   ar
    57    41    42    1
    58     1     2    1
    59    70    71    1
    60    34    33    2
    61    87    95    1
    62    42    47    1
    63    17    16    1
    64     2     3    1
    65    18    16    1
    66    37    36    1
    67    57    58    2
    68    67    68    1
    69    68    71    1
    70    68    75    1
    71    16    15    1
    72    95    96    2
    73   101    99    1
    74     4     3    2
    75     3     5   am
    76    47    48    2
    77    36    35    1
    78    36    39    1
    79    15    14    1
    80    75    76    2
    81     5     6    1
    82    99    98    1
    83    99   100    1
    84    14    13    1
    85    14    19    1
    86    98    97    1
    87    98   102    1
    88    13    11   am
    89    39    40    2
    90    11    12    2
    91    11     6    1
    92     6     7    1
    93    20    19    2
    94   103   102    2
    95     7     8    1
    96    10     8    1
    97     8     9    1
